version 2
run testborder-0-20260503-21:32:35-19844
attr configname testborder
attr datetime 20260503-21:32:35
attr experiment testborder
attr ftpport 21
attr httpport 80
attr inifile Test.ini
attr iterationvars "$k=4, $httpport=80, $ftpport=21"
attr iterationvars2 "$k=4, $httpport=80, $ftpport=21, $repetition=0"
attr k 4
attr measurement "$k=4, $httpport=80, $ftpport=21"
attr network FatTree
attr processid 19844
attr repetition 0
attr replication #0
attr resultdir results
attr runnumber 0
attr seedset 1

scalar . 	ftpport 	21
scalar . 	httpport 	80
scalar . 	k 	4
scalar FatTree.Pod[0].racks[0].servers[0].vms[0].tcpApp[0] 	offState:mean 	-nan
attr source  offState
attr title  "Time in off state, mean"
scalar FatTree.Pod[0].racks[0].servers[0].vms[0].tcpApp[0] 	offState:timeavg 	-nan
attr source  offState
attr title  "Time in off state, timeavg"
scalar FatTree.Pod[0].racks[0].servers[0].vms[0].tcpApp[0] 	powerDownState:mean 	-nan
attr source  powerDownState
attr title  "Time in state when shutting down, mean"
scalar FatTree.Pod[0].racks[0].servers[0].vms[0].tcpApp[0] 	powerDownState:timeavg 	-nan
attr source  powerDownState
attr title  "Time in state when shutting down, timeavg"
scalar FatTree.Pod[0].racks[0].servers[0].vms[0].tcpApp[0] 	powerUpState:mean 	-nan
attr source  powerUpState
attr title  "Time in state when starting up, mean"
scalar FatTree.Pod[0].racks[0].servers[0].vms[0].tcpApp[0] 	powerUpState:timeavg 	-nan
attr source  powerUpState
attr title  "Time in state when starting up, timeavg"
scalar FatTree.Pod[0].racks[0].servers[0].vms[0].tcpApp[0] 	idleState:mean 	1
attr source  idleState
attr title  "Time in idle state, mean"
scalar FatTree.Pod[0].racks[0].servers[0].vms[0].tcpApp[0] 	idleState:timeavg 	1
attr source  idleState
attr title  "Time in idle state, timeavg"
scalar FatTree.Pod[0].racks[0].servers[0].vms[0].tcpApp[0] 	busyState:mean 	-nan
attr source  busyState
attr title  "Time in busy state, mean"
scalar FatTree.Pod[0].racks[0].servers[0].vms[0].tcpApp[0] 	busyState:timeavg 	-nan
attr source  busyState
attr title  "Time in busy state, timeavg"
scalar FatTree.Pod[0].racks[0].servers[0].vms[0].tcpApp[0] 	vmActivity:count 	1
attr source  vmState
attr title  "VM activity, count"
scalar FatTree.Pod[0].racks[0].servers[0].vms[0].tcpApp[0] 	vmActivity:timeavg 	1
attr source  vmState
attr title  "VM activity, timeavg"
scalar FatTree.Pod[0].racks[0].servers[0].vms[0].tcpApp[0] 	countDeadZoneHits:count 	0
attr source  countDeadZoneHits
attr title  "Events which should not happen, count"
scalar FatTree.Pod[0].racks[0].servers[0].vms[0].tcpApp[0] 	processedFtpJobs12:count 	0
attr source  processedFtpJob12
attr title  "Processed ftp job requests, count"
scalar FatTree.Pod[0].racks[0].servers[0].vms[0].tcpApp[0] 	processedWebJobs12:count 	0
attr source  processedWebJob12
attr title  "Processed web job requests, count"
scalar FatTree.Pod[0].racks[0].servers[0].vms[0].tcpApp[0] 	processedFtpJobs11:count 	0
attr source  processedFtpJob11
attr title  "Processed ftp job requests, count"
scalar FatTree.Pod[0].racks[0].servers[0].vms[0].tcpApp[0] 	processedWebJobs11:count 	0
attr source  processedWebJob11
attr title  "Processed web job requests, count"
scalar FatTree.Pod[0].racks[0].servers[0].vms[0].tcpApp[0] 	processedFtpJobs10:count 	0
attr source  processedFtpJob10
attr title  "Processed ftp job requests, count"
scalar FatTree.Pod[0].racks[0].servers[0].vms[0].tcpApp[0] 	processedWebJobs10:count 	0
attr source  processedWebJob10
attr title  "Processed web job requests, count"
scalar FatTree.Pod[0].racks[0].servers[0].vms[0].tcpApp[0] 	processedFtpJobs9:count 	0
attr source  processedFtpJob9
attr title  "Processed ftp job requests, count"
scalar FatTree.Pod[0].racks[0].servers[0].vms[0].tcpApp[0] 	processedWebJobs9:count 	0
attr source  processedWebJob9
attr title  "Processed web job requests, count"
scalar FatTree.Pod[0].racks[0].servers[0].vms[0].tcpApp[0] 	processedFtpJobs8:count 	0
attr source  processedFtpJob8
attr title  "Processed ftp job requests, count"
scalar FatTree.Pod[0].racks[0].servers[0].vms[0].tcpApp[0] 	processedWebJobs8:count 	0
attr source  processedWebJob8
attr title  "Processed web job requests, count"
scalar FatTree.Pod[0].racks[0].servers[0].vms[0].tcpApp[0] 	processedFtpJobs7:count 	0
attr source  processedFtpJob7
attr title  "Processed ftp job requests, count"
scalar FatTree.Pod[0].racks[0].servers[0].vms[0].tcpApp[0] 	processedWebJobs7:count 	0
attr source  processedWebJob7
attr title  "Processed web job requests, count"
scalar FatTree.Pod[0].racks[0].servers[0].vms[0].tcpApp[0] 	processedFtpJobs6:count 	0
attr source  processedFtpJob6
attr title  "Processed ftp job requests, count"
scalar FatTree.Pod[0].racks[0].servers[0].vms[0].tcpApp[0] 	processedWebJobs6:count 	0
attr source  processedWebJob6
attr title  "Processed web job requests, count"
scalar FatTree.Pod[0].racks[0].servers[0].vms[0].tcpApp[0] 	processedFtpJobs5:count 	0
attr source  processedFtpJob5
attr title  "Processed ftp job requests, count"
scalar FatTree.Pod[0].racks[0].servers[0].vms[0].tcpApp[0] 	processedWebJobs5:count 	0
attr source  processedWebJob5
attr title  "Processed web job requests, count"
scalar FatTree.Pod[0].racks[0].servers[0].vms[0].tcpApp[0] 	processedFtpJobs4:count 	0
attr source  processedFtpJob4
attr title  "Processed ftp job requests, count"
scalar FatTree.Pod[0].racks[0].servers[0].vms[0].tcpApp[0] 	processedWebJobs4:count 	0
attr source  processedWebJob4
attr title  "Processed web job requests, count"
scalar FatTree.Pod[0].racks[0].servers[0].vms[0].tcpApp[0] 	processedFtpJobs3:count 	0
attr source  processedFtpJob3
attr title  "Processed ftp job requests, count"
scalar FatTree.Pod[0].racks[0].servers[0].vms[0].tcpApp[0] 	processedWebJobs3:count 	0
attr source  processedWebJob3
attr title  "Processed web job requests, count"
scalar FatTree.Pod[0].racks[0].servers[0].vms[0].tcpApp[0] 	processedFtpJobs2:count 	0
attr source  processedFtpJob2
attr title  "Processed ftp job requests, count"
scalar FatTree.Pod[0].racks[0].servers[0].vms[0].tcpApp[0] 	processedWebJobs2:count 	0
attr source  processedWebJob2
attr title  "Processed web job requests, count"
scalar FatTree.Pod[0].racks[0].servers[0].vms[0].tcpApp[0] 	processedFtpJobs1:count 	0
attr source  processedFtpJob1
attr title  "Processed ftp job requests, count"
scalar FatTree.Pod[0].racks[0].servers[0].vms[0].tcpApp[0] 	processedWebJobs1:count 	0
attr source  processedWebJob1
attr title  "Processed web job requests, count"
statistic FatTree.Pod[0].racks[0].servers[0].vms[0].tcpApp[0] 	startFinishVMMig:stats
field count 0
field mean 0
field stddev -nan
field sum 0
field sqrsum 0
field min 0
field max 0
attr source  startFinishVMMig
attr title  "Start and end of a VM Migration, stats"
scalar FatTree.Pod[0].racks[0].servers[0].vms[0].tcpApp[0] 	doneVmMigrations:last 	-nan
attr source  sum(doneVmMigrations)
attr title  "Number of done VM Migrations, last"
scalar FatTree.Pod[0].racks[0].servers[0].vms[0].tcpApp[0] 	doneVmMigrations:count 	0
attr source  sum(doneVmMigrations)
attr title  "Number of done VM Migrations, count"
scalar FatTree.Pod[0].racks[0].servers[0].vms[0].tcpApp[0] 	totalPowerConsumption12:timeavg 	-nan
attr source  totalPowerConsumption12
attr title  "Total Power Consumption, timeavg"
statistic FatTree.Pod[0].racks[0].servers[0].vms[0].tcpApp[0] 	totalPowerConsumption12:stats
field count 0
field mean 0
field stddev -nan
field sum 0
field sqrsum 0
field min 0
field max 0
attr source  totalPowerConsumption12
attr title  "Total Power Consumption, stats"
scalar FatTree.Pod[0].racks[0].servers[0].vms[0].tcpApp[0] 	totalPowerConsumption11:timeavg 	-nan
attr source  totalPowerConsumption11
attr title  "Total Power Consumption, timeavg"
statistic FatTree.Pod[0].racks[0].servers[0].vms[0].tcpApp[0] 	totalPowerConsumption11:stats
field count 0
field mean 0
field stddev -nan
field sum 0
field sqrsum 0
field min 0
field max 0
attr source  totalPowerConsumption11
attr title  "Total Power Consumption, stats"
scalar FatTree.Pod[0].racks[0].servers[0].vms[0].tcpApp[0] 	totalPowerConsumption10:timeavg 	-nan
attr source  totalPowerConsumption10
attr title  "Total Power Consumption, timeavg"
statistic FatTree.Pod[0].racks[0].servers[0].vms[0].tcpApp[0] 	totalPowerConsumption10:stats
field count 0
field mean 0
field stddev -nan
field sum 0
field sqrsum 0
field min 0
field max 0
attr source  totalPowerConsumption10
attr title  "Total Power Consumption, stats"
scalar FatTree.Pod[0].racks[0].servers[0].vms[0].tcpApp[0] 	totalPowerConsumption9:timeavg 	-nan
attr source  totalPowerConsumption9
attr title  "Total Power Consumption, timeavg"
statistic FatTree.Pod[0].racks[0].servers[0].vms[0].tcpApp[0] 	totalPowerConsumption9:stats
field count 0
field mean 0
field stddev -nan
field sum 0
field sqrsum 0
field min 0
field max 0
attr source  totalPowerConsumption9
attr title  "Total Power Consumption, stats"
scalar FatTree.Pod[0].racks[0].servers[0].vms[0].tcpApp[0] 	totalPowerConsumption8:timeavg 	-nan
attr source  totalPowerConsumption8
attr title  "Total Power Consumption, timeavg"
statistic FatTree.Pod[0].racks[0].servers[0].vms[0].tcpApp[0] 	totalPowerConsumption8:stats
field count 0
field mean 0
field stddev -nan
field sum 0
field sqrsum 0
field min 0
field max 0
attr source  totalPowerConsumption8
attr title  "Total Power Consumption, stats"
scalar FatTree.Pod[0].racks[0].servers[0].vms[0].tcpApp[0] 	totalPowerConsumption7:timeavg 	-nan
attr source  totalPowerConsumption7
attr title  "Total Power Consumption, timeavg"
statistic FatTree.Pod[0].racks[0].servers[0].vms[0].tcpApp[0] 	totalPowerConsumption7:stats
field count 0
field mean 0
field stddev -nan
field sum 0
field sqrsum 0
field min 0
field max 0
attr source  totalPowerConsumption7
attr title  "Total Power Consumption, stats"
scalar FatTree.Pod[0].racks[0].servers[0].vms[0].tcpApp[0] 	totalPowerConsumption6:timeavg 	-nan
attr source  totalPowerConsumption6
attr title  "Total Power Consumption, timeavg"
statistic FatTree.Pod[0].racks[0].servers[0].vms[0].tcpApp[0] 	totalPowerConsumption6:stats
field count 0
field mean 0
field stddev -nan
field sum 0
field sqrsum 0
field min 0
field max 0
attr source  totalPowerConsumption6
attr title  "Total Power Consumption, stats"
scalar FatTree.Pod[0].racks[0].servers[0].vms[0].tcpApp[0] 	totalPowerConsumption5:timeavg 	-nan
attr source  totalPowerConsumption5
attr title  "Total Power Consumption, timeavg"
statistic FatTree.Pod[0].racks[0].servers[0].vms[0].tcpApp[0] 	totalPowerConsumption5:stats
field count 0
field mean 0
field stddev -nan
field sum 0
field sqrsum 0
field min 0
field max 0
attr source  totalPowerConsumption5
attr title  "Total Power Consumption, stats"
scalar FatTree.Pod[0].racks[0].servers[0].vms[0].tcpApp[0] 	totalPowerConsumption4:timeavg 	-nan
attr source  totalPowerConsumption4
attr title  "Total Power Consumption, timeavg"
statistic FatTree.Pod[0].racks[0].servers[0].vms[0].tcpApp[0] 	totalPowerConsumption4:stats
field count 0
field mean 0
field stddev -nan
field sum 0
field sqrsum 0
field min 0
field max 0
attr source  totalPowerConsumption4
attr title  "Total Power Consumption, stats"
scalar FatTree.Pod[0].racks[0].servers[0].vms[0].tcpApp[0] 	totalPowerConsumption3:timeavg 	-nan
attr source  totalPowerConsumption3
attr title  "Total Power Consumption, timeavg"
statistic FatTree.Pod[0].racks[0].servers[0].vms[0].tcpApp[0] 	totalPowerConsumption3:stats
field count 0
field mean 0
field stddev -nan
field sum 0
field sqrsum 0
field min 0
field max 0
attr source  totalPowerConsumption3
attr title  "Total Power Consumption, stats"
scalar FatTree.Pod[0].racks[0].servers[0].vms[0].tcpApp[0] 	totalPowerConsumption2:timeavg 	-nan
attr source  totalPowerConsumption2
attr title  "Total Power Consumption, timeavg"
statistic FatTree.Pod[0].racks[0].servers[0].vms[0].tcpApp[0] 	totalPowerConsumption2:stats
field count 0
field mean 0
field stddev -nan
field sum 0
field sqrsum 0
field min 0
field max 0
attr source  totalPowerConsumption2
attr title  "Total Power Consumption, stats"
scalar FatTree.Pod[0].racks[0].servers[0].vms[0].tcpApp[0] 	totalPowerConsumption1:timeavg 	-nan
attr source  totalPowerConsumption1
attr title  "Total Power Consumption, timeavg"
statistic FatTree.Pod[0].racks[0].servers[0].vms[0].tcpApp[0] 	totalPowerConsumption1:stats
field count 0
field mean 0
field stddev -nan
field sum 0
field sqrsum 0
field min 0
field max 0
attr source  totalPowerConsumption1
attr title  "Total Power Consumption, stats"
statistic FatTree.Pod[0].racks[0].servers[0].vms[0].tcpApp[0] 	timemovavgFTP:stats
field count 0
field mean 0
field stddev -nan
field sum 0
field sqrsum 0
field min 0
field max 0
attr source  timemovavgFTP
attr title  "TimeExpWeighMovAvg for ftp service, stats"
statistic FatTree.Pod[0].racks[0].servers[0].vms[0].tcpApp[0] 	timemovavgWeb:stats
field count 0
field mean 0
field stddev -nan
field sum 0
field sqrsum 0
field min 0
field max 0
attr source  timemovavgWeb
attr title  "TimeExpWeighMovAvg for webservice, stats"
scalar FatTree.Pod[0].racks[0].servers[0].vms[0].tcpApp[0] 	numAllVMs:last 	-nan
attr source  numAllVMs
attr title  "Number of All VMs, last"
scalar FatTree.Pod[0].racks[0].servers[0].vms[0].tcpApp[0] 	numActiveFTPVMs:timeavg 	-nan
attr source  numActiveFTPVMs
attr title  "Active VMs for FTP service, timeavg"
statistic FatTree.Pod[0].racks[0].servers[0].vms[0].tcpApp[0] 	numActiveFTPVMs:stats
field count 0
field mean 0
field stddev -nan
field sum 0
field sqrsum 0
field min 0
field max 0
attr source  numActiveFTPVMs
attr title  "Active VMs for FTP service, stats"
scalar FatTree.Pod[0].racks[0].servers[0].vms[0].tcpApp[0] 	numActiveWebVMs:timeavg 	-nan
attr source  numActiveWebVMs
attr title  "Active VMs for webservice, timeavg"
statistic FatTree.Pod[0].racks[0].servers[0].vms[0].tcpApp[0] 	numActiveWebVMs:stats
field count 0
field mean 0
field stddev -nan
field sum 0
field sqrsum 0
field min 0
field max 0
attr source  numActiveWebVMs
attr title  "Active VMs for webservice, stats"
statistic FatTree.Pod[0].racks[0].servers[0].vms[0].tcpApp[0] 	numActiveVMs12:stats
field count 0
field mean 0
field stddev -nan
field sum 0
field sqrsum 0
field min 0
field max 0
attr source  numActiveVMs12
attr title  "Number of Active VMs, stats"
scalar FatTree.Pod[0].racks[0].servers[0].vms[0].tcpApp[0] 	numActiveVMs12:timeavg 	-nan
attr source  numActiveVMs12
attr title  "Number of Active VMs, timeavg"
statistic FatTree.Pod[0].racks[0].servers[0].vms[0].tcpApp[0] 	numActiveVMs11:stats
field count 0
field mean 0
field stddev -nan
field sum 0
field sqrsum 0
field min 0
field max 0
attr source  numActiveVMs11
attr title  "Number of Active VMs, stats"
scalar FatTree.Pod[0].racks[0].servers[0].vms[0].tcpApp[0] 	numActiveVMs11:timeavg 	-nan
attr source  numActiveVMs11
attr title  "Number of Active VMs, timeavg"
statistic FatTree.Pod[0].racks[0].servers[0].vms[0].tcpApp[0] 	numActiveVMs10:stats
field count 0
field mean 0
field stddev -nan
field sum 0
field sqrsum 0
field min 0
field max 0
attr source  numActiveVMs10
attr title  "Number of Active VMs, stats"
scalar FatTree.Pod[0].racks[0].servers[0].vms[0].tcpApp[0] 	numActiveVMs10:timeavg 	-nan
attr source  numActiveVMs10
attr title  "Number of Active VMs, timeavg"
statistic FatTree.Pod[0].racks[0].servers[0].vms[0].tcpApp[0] 	numActiveVMs9:stats
field count 0
field mean 0
field stddev -nan
field sum 0
field sqrsum 0
field min 0
field max 0
attr source  numActiveVMs9
attr title  "Number of Active VMs, stats"
scalar FatTree.Pod[0].racks[0].servers[0].vms[0].tcpApp[0] 	numActiveVMs9:timeavg 	-nan
attr source  numActiveVMs9
attr title  "Number of Active VMs, timeavg"
statistic FatTree.Pod[0].racks[0].servers[0].vms[0].tcpApp[0] 	numActiveVMs8:stats
field count 0
field mean 0
field stddev -nan
field sum 0
field sqrsum 0
field min 0
field max 0
attr source  numActiveVMs8
attr title  "Number of Active VMs, stats"
scalar FatTree.Pod[0].racks[0].servers[0].vms[0].tcpApp[0] 	numActiveVMs8:timeavg 	-nan
attr source  numActiveVMs8
attr title  "Number of Active VMs, timeavg"
statistic FatTree.Pod[0].racks[0].servers[0].vms[0].tcpApp[0] 	numActiveVMs7:stats
field count 0
field mean 0
field stddev -nan
field sum 0
field sqrsum 0
field min 0
field max 0
attr source  numActiveVMs7
attr title  "Number of Active VMs, stats"
scalar FatTree.Pod[0].racks[0].servers[0].vms[0].tcpApp[0] 	numActiveVMs7:timeavg 	-nan
attr source  numActiveVMs7
attr title  "Number of Active VMs, timeavg"
statistic FatTree.Pod[0].racks[0].servers[0].vms[0].tcpApp[0] 	numActiveVMs6:stats
field count 0
field mean 0
field stddev -nan
field sum 0
field sqrsum 0
field min 0
field max 0
attr source  numActiveVMs6
attr title  "Number of Active VMs, stats"
scalar FatTree.Pod[0].racks[0].servers[0].vms[0].tcpApp[0] 	numActiveVMs6:timeavg 	-nan
attr source  numActiveVMs6
attr title  "Number of Active VMs, timeavg"
statistic FatTree.Pod[0].racks[0].servers[0].vms[0].tcpApp[0] 	numActiveVMs5:stats
field count 0
field mean 0
field stddev -nan
field sum 0
field sqrsum 0
field min 0
field max 0
attr source  numActiveVMs5
attr title  "Number of Active VMs, stats"
scalar FatTree.Pod[0].racks[0].servers[0].vms[0].tcpApp[0] 	numActiveVMs5:timeavg 	-nan
attr source  numActiveVMs5
attr title  "Number of Active VMs, timeavg"
statistic FatTree.Pod[0].racks[0].servers[0].vms[0].tcpApp[0] 	numActiveVMs4:stats
field count 0
field mean 0
field stddev -nan
field sum 0
field sqrsum 0
field min 0
field max 0
attr source  numActiveVMs4
attr title  "Number of Active VMs, stats"
scalar FatTree.Pod[0].racks[0].servers[0].vms[0].tcpApp[0] 	numActiveVMs4:timeavg 	-nan
attr source  numActiveVMs4
attr title  "Number of Active VMs, timeavg"
statistic FatTree.Pod[0].racks[0].servers[0].vms[0].tcpApp[0] 	numActiveVMs3:stats
field count 0
field mean 0
field stddev -nan
field sum 0
field sqrsum 0
field min 0
field max 0
attr source  numActiveVMs3
attr title  "Number of Active VMs, stats"
scalar FatTree.Pod[0].racks[0].servers[0].vms[0].tcpApp[0] 	numActiveVMs3:timeavg 	-nan
attr source  numActiveVMs3
attr title  "Number of Active VMs, timeavg"
statistic FatTree.Pod[0].racks[0].servers[0].vms[0].tcpApp[0] 	numActiveVMs2:stats
field count 0
field mean 0
field stddev -nan
field sum 0
field sqrsum 0
field min 0
field max 0
attr source  numActiveVMs2
attr title  "Number of Active VMs, stats"
scalar FatTree.Pod[0].racks[0].servers[0].vms[0].tcpApp[0] 	numActiveVMs2:timeavg 	-nan
attr source  numActiveVMs2
attr title  "Number of Active VMs, timeavg"
statistic FatTree.Pod[0].racks[0].servers[0].vms[0].tcpApp[0] 	numActiveVMs1:stats
field count 0
field mean 0
field stddev -nan
field sum 0
field sqrsum 0
field min 0
field max 0
attr source  numActiveVMs1
attr title  "Number of Active VMs, stats"
scalar FatTree.Pod[0].racks[0].servers[0].vms[0].tcpApp[0] 	numActiveVMs1:timeavg 	-nan
attr source  numActiveVMs1
attr title  "Number of Active VMs, timeavg"
scalar FatTree.Pod[0].racks[0].servers[0].vms[0].tcpApp[0] 	jobQueueFTP12:timeavg 	-nan
attr source  jobQueueFTP12
attr title  "Length of JQ for ftp service, timeavg"
statistic FatTree.Pod[0].racks[0].servers[0].vms[0].tcpApp[0] 	jobQueueFTP12:stats
field count 0
field mean 0
field stddev -nan
field sum 0
field sqrsum 0
field min 0
field max 0
attr source  jobQueueFTP12
attr title  "Length of JQ for ftp service, stats"
scalar FatTree.Pod[0].racks[0].servers[0].vms[0].tcpApp[0] 	jobQueueWeb12:timeavg 	-nan
attr source  jobQueueWeb12
attr title  "Length of JQ for webservice, timeavg"
statistic FatTree.Pod[0].racks[0].servers[0].vms[0].tcpApp[0] 	jobQueueWeb12:stats
field count 0
field mean 0
field stddev -nan
field sum 0
field sqrsum 0
field min 0
field max 0
attr source  jobQueueWeb12
attr title  "Length of JQ for webservice, stats"
scalar FatTree.Pod[0].racks[0].servers[0].vms[0].tcpApp[0] 	jobQueueFTP11:timeavg 	-nan
attr source  jobQueueFTP11
attr title  "Length of JQ for ftp service, timeavg"
statistic FatTree.Pod[0].racks[0].servers[0].vms[0].tcpApp[0] 	jobQueueFTP11:stats
field count 0
field mean 0
field stddev -nan
field sum 0
field sqrsum 0
field min 0
field max 0
attr source  jobQueueFTP11
attr title  "Length of JQ for ftp service, stats"
scalar FatTree.Pod[0].racks[0].servers[0].vms[0].tcpApp[0] 	jobQueueWeb11:timeavg 	-nan
attr source  jobQueueWeb11
attr title  "Length of JQ for webservice, timeavg"
statistic FatTree.Pod[0].racks[0].servers[0].vms[0].tcpApp[0] 	jobQueueWeb11:stats
field count 0
field mean 0
field stddev -nan
field sum 0
field sqrsum 0
field min 0
field max 0
attr source  jobQueueWeb11
attr title  "Length of JQ for webservice, stats"
scalar FatTree.Pod[0].racks[0].servers[0].vms[0].tcpApp[0] 	jobQueueFTP10:timeavg 	-nan
attr source  jobQueueFTP10
attr title  "Length of JQ for ftp service, timeavg"
statistic FatTree.Pod[0].racks[0].servers[0].vms[0].tcpApp[0] 	jobQueueFTP10:stats
field count 0
field mean 0
field stddev -nan
field sum 0
field sqrsum 0
field min 0
field max 0
attr source  jobQueueFTP10
attr title  "Length of JQ for ftp service, stats"
scalar FatTree.Pod[0].racks[0].servers[0].vms[0].tcpApp[0] 	jobQueueWeb10:timeavg 	-nan
attr source  jobQueueWeb10
attr title  "Length of JQ for webservice, timeavg"
statistic FatTree.Pod[0].racks[0].servers[0].vms[0].tcpApp[0] 	jobQueueWeb10:stats
field count 0
field mean 0
field stddev -nan
field sum 0
field sqrsum 0
field min 0
field max 0
attr source  jobQueueWeb10
attr title  "Length of JQ for webservice, stats"
scalar FatTree.Pod[0].racks[0].servers[0].vms[0].tcpApp[0] 	jobQueueFTP9:timeavg 	-nan
attr source  jobQueueFTP9
attr title  "Length of JQ for ftp service, timeavg"
statistic FatTree.Pod[0].racks[0].servers[0].vms[0].tcpApp[0] 	jobQueueFTP9:stats
field count 0
field mean 0
field stddev -nan
field sum 0
field sqrsum 0
field min 0
field max 0
attr source  jobQueueFTP9
attr title  "Length of JQ for ftp service, stats"
scalar FatTree.Pod[0].racks[0].servers[0].vms[0].tcpApp[0] 	jobQueueWeb9:timeavg 	-nan
attr source  jobQueueWeb9
attr title  "Length of JQ for webservice, timeavg"
statistic FatTree.Pod[0].racks[0].servers[0].vms[0].tcpApp[0] 	jobQueueWeb9:stats
field count 0
field mean 0
field stddev -nan
field sum 0
field sqrsum 0
field min 0
field max 0
attr source  jobQueueWeb9
attr title  "Length of JQ for webservice, stats"
scalar FatTree.Pod[0].racks[0].servers[0].vms[0].tcpApp[0] 	jobQueueFTP8:timeavg 	-nan
attr source  jobQueueFTP8
attr title  "Length of JQ for ftp service, timeavg"
statistic FatTree.Pod[0].racks[0].servers[0].vms[0].tcpApp[0] 	jobQueueFTP8:stats
field count 0
field mean 0
field stddev -nan
field sum 0
field sqrsum 0
field min 0
field max 0
attr source  jobQueueFTP8
attr title  "Length of JQ for ftp service, stats"
scalar FatTree.Pod[0].racks[0].servers[0].vms[0].tcpApp[0] 	jobQueueWeb8:timeavg 	-nan
attr source  jobQueueWeb8
attr title  "Length of JQ for webservice, timeavg"
statistic FatTree.Pod[0].racks[0].servers[0].vms[0].tcpApp[0] 	jobQueueWeb8:stats
field count 0
field mean 0
field stddev -nan
field sum 0
field sqrsum 0
field min 0
field max 0
attr source  jobQueueWeb8
attr title  "Length of JQ for webservice, stats"
scalar FatTree.Pod[0].racks[0].servers[0].vms[0].tcpApp[0] 	jobQueueFTP7:timeavg 	-nan
attr source  jobQueueFTP7
attr title  "Length of JQ for ftp service, timeavg"
statistic FatTree.Pod[0].racks[0].servers[0].vms[0].tcpApp[0] 	jobQueueFTP7:stats
field count 0
field mean 0
field stddev -nan
field sum 0
field sqrsum 0
field min 0
field max 0
attr source  jobQueueFTP7
attr title  "Length of JQ for ftp service, stats"
scalar FatTree.Pod[0].racks[0].servers[0].vms[0].tcpApp[0] 	jobQueueWeb7:timeavg 	-nan
attr source  jobQueueWeb7
attr title  "Length of JQ for webservice, timeavg"
statistic FatTree.Pod[0].racks[0].servers[0].vms[0].tcpApp[0] 	jobQueueWeb7:stats
field count 0
field mean 0
field stddev -nan
field sum 0
field sqrsum 0
field min 0
field max 0
attr source  jobQueueWeb7
attr title  "Length of JQ for webservice, stats"
scalar FatTree.Pod[0].racks[0].servers[0].vms[0].tcpApp[0] 	jobQueueFTP6:timeavg 	-nan
attr source  jobQueueFTP6
attr title  "Length of JQ for ftp service, timeavg"
statistic FatTree.Pod[0].racks[0].servers[0].vms[0].tcpApp[0] 	jobQueueFTP6:stats
field count 0
field mean 0
field stddev -nan
field sum 0
field sqrsum 0
field min 0
field max 0
attr source  jobQueueFTP6
attr title  "Length of JQ for ftp service, stats"
scalar FatTree.Pod[0].racks[0].servers[0].vms[0].tcpApp[0] 	jobQueueWeb6:timeavg 	-nan
attr source  jobQueueWeb6
attr title  "Length of JQ for webservice, timeavg"
statistic FatTree.Pod[0].racks[0].servers[0].vms[0].tcpApp[0] 	jobQueueWeb6:stats
field count 0
field mean 0
field stddev -nan
field sum 0
field sqrsum 0
field min 0
field max 0
attr source  jobQueueWeb6
attr title  "Length of JQ for webservice, stats"
scalar FatTree.Pod[0].racks[0].servers[0].vms[0].tcpApp[0] 	jobQueueFTP5:timeavg 	-nan
attr source  jobQueueFTP5
attr title  "Length of JQ for ftp service, timeavg"
statistic FatTree.Pod[0].racks[0].servers[0].vms[0].tcpApp[0] 	jobQueueFTP5:stats
field count 0
field mean 0
field stddev -nan
field sum 0
field sqrsum 0
field min 0
field max 0
attr source  jobQueueFTP5
attr title  "Length of JQ for ftp service, stats"
scalar FatTree.Pod[0].racks[0].servers[0].vms[0].tcpApp[0] 	jobQueueWeb5:timeavg 	-nan
attr source  jobQueueWeb5
attr title  "Length of JQ for webservice, timeavg"
statistic FatTree.Pod[0].racks[0].servers[0].vms[0].tcpApp[0] 	jobQueueWeb5:stats
field count 0
field mean 0
field stddev -nan
field sum 0
field sqrsum 0
field min 0
field max 0
attr source  jobQueueWeb5
attr title  "Length of JQ for webservice, stats"
scalar FatTree.Pod[0].racks[0].servers[0].vms[0].tcpApp[0] 	jobQueueFTP4:timeavg 	-nan
attr source  jobQueueFTP4
attr title  "Length of JQ for ftp service, timeavg"
statistic FatTree.Pod[0].racks[0].servers[0].vms[0].tcpApp[0] 	jobQueueFTP4:stats
field count 0
field mean 0
field stddev -nan
field sum 0
field sqrsum 0
field min 0
field max 0
attr source  jobQueueFTP4
attr title  "Length of JQ for ftp service, stats"
scalar FatTree.Pod[0].racks[0].servers[0].vms[0].tcpApp[0] 	jobQueueWeb4:timeavg 	-nan
attr source  jobQueueWeb4
attr title  "Length of JQ for webservice, timeavg"
statistic FatTree.Pod[0].racks[0].servers[0].vms[0].tcpApp[0] 	jobQueueWeb4:stats
field count 0
field mean 0
field stddev -nan
field sum 0
field sqrsum 0
field min 0
field max 0
attr source  jobQueueWeb4
attr title  "Length of JQ for webservice, stats"
scalar FatTree.Pod[0].racks[0].servers[0].vms[0].tcpApp[0] 	jobQueueFTP3:timeavg 	-nan
attr source  jobQueueFTP3
attr title  "Length of JQ for ftp service, timeavg"
statistic FatTree.Pod[0].racks[0].servers[0].vms[0].tcpApp[0] 	jobQueueFTP3:stats
field count 0
field mean 0
field stddev -nan
field sum 0
field sqrsum 0
field min 0
field max 0
attr source  jobQueueFTP3
attr title  "Length of JQ for ftp service, stats"
scalar FatTree.Pod[0].racks[0].servers[0].vms[0].tcpApp[0] 	jobQueueWeb3:timeavg 	-nan
attr source  jobQueueWeb3
attr title  "Length of JQ for webservice, timeavg"
statistic FatTree.Pod[0].racks[0].servers[0].vms[0].tcpApp[0] 	jobQueueWeb3:stats
field count 0
field mean 0
field stddev -nan
field sum 0
field sqrsum 0
field min 0
field max 0
attr source  jobQueueWeb3
attr title  "Length of JQ for webservice, stats"
scalar FatTree.Pod[0].racks[0].servers[0].vms[0].tcpApp[0] 	jobQueueFTP2:timeavg 	-nan
attr source  jobQueueFTP2
attr title  "Length of JQ for ftp service, timeavg"
statistic FatTree.Pod[0].racks[0].servers[0].vms[0].tcpApp[0] 	jobQueueFTP2:stats
field count 0
field mean 0
field stddev -nan
field sum 0
field sqrsum 0
field min 0
field max 0
attr source  jobQueueFTP2
attr title  "Length of JQ for ftp service, stats"
scalar FatTree.Pod[0].racks[0].servers[0].vms[0].tcpApp[0] 	jobQueueWeb2:timeavg 	-nan
attr source  jobQueueWeb2
attr title  "Length of JQ for webservice, timeavg"
statistic FatTree.Pod[0].racks[0].servers[0].vms[0].tcpApp[0] 	jobQueueWeb2:stats
field count 0
field mean 0
field stddev -nan
field sum 0
field sqrsum 0
field min 0
field max 0
attr source  jobQueueWeb2
attr title  "Length of JQ for webservice, stats"
scalar FatTree.Pod[0].racks[0].servers[0].vms[0].tcpApp[0] 	jobQueueFTP1:timeavg 	-nan
attr source  jobQueueFTP1
attr title  "Length of JQ for ftp service, timeavg"
statistic FatTree.Pod[0].racks[0].servers[0].vms[0].tcpApp[0] 	jobQueueFTP1:stats
field count 0
field mean 0
field stddev -nan
field sum 0
field sqrsum 0
field min 0
field max 0
attr source  jobQueueFTP1
attr title  "Length of JQ for ftp service, stats"
scalar FatTree.Pod[0].racks[0].servers[0].vms[0].tcpApp[0] 	jobQueueWeb1:timeavg 	-nan
attr source  jobQueueWeb1
attr title  "Length of JQ for webservice, timeavg"
statistic FatTree.Pod[0].racks[0].servers[0].vms[0].tcpApp[0] 	jobQueueWeb1:stats
field count 0
field mean 0
field stddev -nan
field sum 0
field sqrsum 0
field min 0
field max 0
attr source  jobQueueWeb1
attr title  "Length of JQ for webservice, stats"
statistic FatTree.Pod[0].racks[0].servers[0].vms[0].tcpApp[0] 	numBusyVMs12:stats
field count 0
field mean 0
field stddev -nan
field sum 0
field sqrsum 0
field min 0
field max 0
attr source  numBusyVMs12
attr title  "Number of busy vms - processing a job, stats"
scalar FatTree.Pod[0].racks[0].servers[0].vms[0].tcpApp[0] 	numBusyVMs12:timeavg 	-nan
attr source  numBusyVMs12
attr title  "Number of busy vms - processing a job, timeavg"
statistic FatTree.Pod[0].racks[0].servers[0].vms[0].tcpApp[0] 	numBusyVMs11:stats
field count 0
field mean 0
field stddev -nan
field sum 0
field sqrsum 0
field min 0
field max 0
attr source  numBusyVMs11
attr title  "Number of busy vms - processing a job, stats"
scalar FatTree.Pod[0].racks[0].servers[0].vms[0].tcpApp[0] 	numBusyVMs11:timeavg 	-nan
attr source  numBusyVMs11
attr title  "Number of busy vms - processing a job, timeavg"
statistic FatTree.Pod[0].racks[0].servers[0].vms[0].tcpApp[0] 	numBusyVMs10:stats
field count 0
field mean 0
field stddev -nan
field sum 0
field sqrsum 0
field min 0
field max 0
attr source  numBusyVMs10
attr title  "Number of busy vms - processing a job, stats"
scalar FatTree.Pod[0].racks[0].servers[0].vms[0].tcpApp[0] 	numBusyVMs10:timeavg 	-nan
attr source  numBusyVMs10
attr title  "Number of busy vms - processing a job, timeavg"
statistic FatTree.Pod[0].racks[0].servers[0].vms[0].tcpApp[0] 	numBusyVMs9:stats
field count 0
field mean 0
field stddev -nan
field sum 0
field sqrsum 0
field min 0
field max 0
attr source  numBusyVMs9
attr title  "Number of busy vms - processing a job, stats"
scalar FatTree.Pod[0].racks[0].servers[0].vms[0].tcpApp[0] 	numBusyVMs9:timeavg 	-nan
attr source  numBusyVMs9
attr title  "Number of busy vms - processing a job, timeavg"
statistic FatTree.Pod[0].racks[0].servers[0].vms[0].tcpApp[0] 	numBusyVMs8:stats
field count 0
field mean 0
field stddev -nan
field sum 0
field sqrsum 0
field min 0
field max 0
attr source  numBusyVMs8
attr title  "Number of busy vms - processing a job, stats"
scalar FatTree.Pod[0].racks[0].servers[0].vms[0].tcpApp[0] 	numBusyVMs8:timeavg 	-nan
attr source  numBusyVMs8
attr title  "Number of busy vms - processing a job, timeavg"
statistic FatTree.Pod[0].racks[0].servers[0].vms[0].tcpApp[0] 	numBusyVMs7:stats
field count 0
field mean 0
field stddev -nan
field sum 0
field sqrsum 0
field min 0
field max 0
attr source  numBusyVMs7
attr title  "Number of busy vms - processing a job, stats"
scalar FatTree.Pod[0].racks[0].servers[0].vms[0].tcpApp[0] 	numBusyVMs7:timeavg 	-nan
attr source  numBusyVMs7
attr title  "Number of busy vms - processing a job, timeavg"
statistic FatTree.Pod[0].racks[0].servers[0].vms[0].tcpApp[0] 	numBusyVMs6:stats
field count 0
field mean 0
field stddev -nan
field sum 0
field sqrsum 0
field min 0
field max 0
attr source  numBusyVMs6
attr title  "Number of busy vms - processing a job, stats"
scalar FatTree.Pod[0].racks[0].servers[0].vms[0].tcpApp[0] 	numBusyVMs6:timeavg 	-nan
attr source  numBusyVMs6
attr title  "Number of busy vms - processing a job, timeavg"
statistic FatTree.Pod[0].racks[0].servers[0].vms[0].tcpApp[0] 	numBusyVMs5:stats
field count 0
field mean 0
field stddev -nan
field sum 0
field sqrsum 0
field min 0
field max 0
attr source  numBusyVMs5
attr title  "Number of busy vms - processing a job, stats"
scalar FatTree.Pod[0].racks[0].servers[0].vms[0].tcpApp[0] 	numBusyVMs5:timeavg 	-nan
attr source  numBusyVMs5
attr title  "Number of busy vms - processing a job, timeavg"
statistic FatTree.Pod[0].racks[0].servers[0].vms[0].tcpApp[0] 	numBusyVMs4:stats
field count 0
field mean 0
field stddev -nan
field sum 0
field sqrsum 0
field min 0
field max 0
attr source  numBusyVMs4
attr title  "Number of busy vms - processing a job, stats"
scalar FatTree.Pod[0].racks[0].servers[0].vms[0].tcpApp[0] 	numBusyVMs4:timeavg 	-nan
attr source  numBusyVMs4
attr title  "Number of busy vms - processing a job, timeavg"
statistic FatTree.Pod[0].racks[0].servers[0].vms[0].tcpApp[0] 	numBusyVMs3:stats
field count 0
field mean 0
field stddev -nan
field sum 0
field sqrsum 0
field min 0
field max 0
attr source  numBusyVMs3
attr title  "Number of busy vms - processing a job, stats"
scalar FatTree.Pod[0].racks[0].servers[0].vms[0].tcpApp[0] 	numBusyVMs3:timeavg 	-nan
attr source  numBusyVMs3
attr title  "Number of busy vms - processing a job, timeavg"
statistic FatTree.Pod[0].racks[0].servers[0].vms[0].tcpApp[0] 	numBusyVMs2:stats
field count 0
field mean 0
field stddev -nan
field sum 0
field sqrsum 0
field min 0
field max 0
attr source  numBusyVMs2
attr title  "Number of busy vms - processing a job, stats"
scalar FatTree.Pod[0].racks[0].servers[0].vms[0].tcpApp[0] 	numBusyVMs2:timeavg 	-nan
attr source  numBusyVMs2
attr title  "Number of busy vms - processing a job, timeavg"
statistic FatTree.Pod[0].racks[0].servers[0].vms[0].tcpApp[0] 	numBusyVMs1:stats
field count 0
field mean 0
field stddev -nan
field sum 0
field sqrsum 0
field min 0
field max 0
attr source  numBusyVMs1
attr title  "Number of busy vms - processing a job, stats"
scalar FatTree.Pod[0].racks[0].servers[0].vms[0].tcpApp[0] 	numBusyVMs1:timeavg 	-nan
attr source  numBusyVMs1
attr title  "Number of busy vms - processing a job, timeavg"
scalar FatTree.Pod[0].racks[0].servers[0].vms[0].tcpApp[0] 	numFreeFTPVMs:timeavg 	-nan
attr source  numFreeFTPVMs
attr title  "Free VMs for FTP service, timeavg"
statistic FatTree.Pod[0].racks[0].servers[0].vms[0].tcpApp[0] 	numFreeFTPVMs:stats
field count 0
field mean 0
field stddev -nan
field sum 0
field sqrsum 0
field min 0
field max 0
attr source  numFreeFTPVMs
attr title  "Free VMs for FTP service, stats"
scalar FatTree.Pod[0].racks[0].servers[0].vms[0].tcpApp[0] 	numFreeWebVMs:timeavg 	-nan
attr source  numFreeWebVMs
attr title  "Free VMs for webservice, timeavg"
statistic FatTree.Pod[0].racks[0].servers[0].vms[0].tcpApp[0] 	numFreeWebVMs:stats
field count 0
field mean 0
field stddev -nan
field sum 0
field sqrsum 0
field min 0
field max 0
attr source  numFreeWebVMs
attr title  "Free VMs for webservice, stats"
statistic FatTree.Pod[0].racks[0].servers[0].vms[0].tcpApp[0] 	serverState12:stats
field count 0
field mean 0
field stddev -nan
field sum 0
field sqrsum 0
field min 0
field max 0
attr source  globalServerState12
attr title  "Active Servers, stats"
scalar FatTree.Pod[0].racks[0].servers[0].vms[0].tcpApp[0] 	serverState12:timeavg 	-nan
attr source  globalServerState12
attr title  "Active Servers, timeavg"
statistic FatTree.Pod[0].racks[0].servers[0].vms[0].tcpApp[0] 	serverState11:stats
field count 0
field mean 0
field stddev -nan
field sum 0
field sqrsum 0
field min 0
field max 0
attr source  globalServerState11
attr title  "Active Servers, stats"
scalar FatTree.Pod[0].racks[0].servers[0].vms[0].tcpApp[0] 	serverState11:timeavg 	-nan
attr source  globalServerState11
attr title  "Active Servers, timeavg"
statistic FatTree.Pod[0].racks[0].servers[0].vms[0].tcpApp[0] 	serverState10:stats
field count 0
field mean 0
field stddev -nan
field sum 0
field sqrsum 0
field min 0
field max 0
attr source  globalServerState10
attr title  "Active Servers, stats"
scalar FatTree.Pod[0].racks[0].servers[0].vms[0].tcpApp[0] 	serverState10:timeavg 	-nan
attr source  globalServerState10
attr title  "Active Servers, timeavg"
statistic FatTree.Pod[0].racks[0].servers[0].vms[0].tcpApp[0] 	serverState9:stats
field count 0
field mean 0
field stddev -nan
field sum 0
field sqrsum 0
field min 0
field max 0
attr source  globalServerState9
attr title  "Active Servers, stats"
scalar FatTree.Pod[0].racks[0].servers[0].vms[0].tcpApp[0] 	serverState9:timeavg 	-nan
attr source  globalServerState9
attr title  "Active Servers, timeavg"
statistic FatTree.Pod[0].racks[0].servers[0].vms[0].tcpApp[0] 	serverState8:stats
field count 0
field mean 0
field stddev -nan
field sum 0
field sqrsum 0
field min 0
field max 0
attr source  globalServerState8
attr title  "Active Servers, stats"
scalar FatTree.Pod[0].racks[0].servers[0].vms[0].tcpApp[0] 	serverState8:timeavg 	-nan
attr source  globalServerState8
attr title  "Active Servers, timeavg"
statistic FatTree.Pod[0].racks[0].servers[0].vms[0].tcpApp[0] 	serverState7:stats
field count 0
field mean 0
field stddev -nan
field sum 0
field sqrsum 0
field min 0
field max 0
attr source  globalServerState7
attr title  "Active Servers, stats"
scalar FatTree.Pod[0].racks[0].servers[0].vms[0].tcpApp[0] 	serverState7:timeavg 	-nan
attr source  globalServerState7
attr title  "Active Servers, timeavg"
statistic FatTree.Pod[0].racks[0].servers[0].vms[0].tcpApp[0] 	serverState6:stats
field count 0
field mean 0
field stddev -nan
field sum 0
field sqrsum 0
field min 0
field max 0
attr source  globalServerState6
attr title  "Active Servers, stats"
scalar FatTree.Pod[0].racks[0].servers[0].vms[0].tcpApp[0] 	serverState6:timeavg 	-nan
attr source  globalServerState6
attr title  "Active Servers, timeavg"
statistic FatTree.Pod[0].racks[0].servers[0].vms[0].tcpApp[0] 	serverState5:stats
field count 0
field mean 0
field stddev -nan
field sum 0
field sqrsum 0
field min 0
field max 0
attr source  globalServerState5
attr title  "Active Servers, stats"
scalar FatTree.Pod[0].racks[0].servers[0].vms[0].tcpApp[0] 	serverState5:timeavg 	-nan
attr source  globalServerState5
attr title  "Active Servers, timeavg"
statistic FatTree.Pod[0].racks[0].servers[0].vms[0].tcpApp[0] 	serverState4:stats
field count 0
field mean 0
field stddev -nan
field sum 0
field sqrsum 0
field min 0
field max 0
attr source  globalServerState4
attr title  "Active Servers, stats"
scalar FatTree.Pod[0].racks[0].servers[0].vms[0].tcpApp[0] 	serverState4:timeavg 	-nan
attr source  globalServerState4
attr title  "Active Servers, timeavg"
statistic FatTree.Pod[0].racks[0].servers[0].vms[0].tcpApp[0] 	serverState3:stats
field count 0
field mean 0
field stddev -nan
field sum 0
field sqrsum 0
field min 0
field max 0
attr source  globalServerState3
attr title  "Active Servers, stats"
scalar FatTree.Pod[0].racks[0].servers[0].vms[0].tcpApp[0] 	serverState3:timeavg 	-nan
attr source  globalServerState3
attr title  "Active Servers, timeavg"
statistic FatTree.Pod[0].racks[0].servers[0].vms[0].tcpApp[0] 	serverState2:stats
field count 0
field mean 0
field stddev -nan
field sum 0
field sqrsum 0
field min 0
field max 0
attr source  globalServerState2
attr title  "Active Servers, stats"
scalar FatTree.Pod[0].racks[0].servers[0].vms[0].tcpApp[0] 	serverState2:timeavg 	-nan
attr source  globalServerState2
attr title  "Active Servers, timeavg"
statistic FatTree.Pod[0].racks[0].servers[0].vms[0].tcpApp[0] 	serverState1:stats
field count 0
field mean 0
field stddev -nan
field sum 0
field sqrsum 0
field min 0
field max 0
attr source  globalServerState1
attr title  "Active Servers, stats"
scalar FatTree.Pod[0].racks[0].servers[0].vms[0].tcpApp[0] 	serverState1:timeavg 	-nan
attr source  globalServerState1
attr title  "Active Servers, timeavg"
scalar FatTree.Pod[0].racks[0].servers[0].hypervisor.tcpApp[0] 	hvActivity:timeavg 	1
attr source  hvState
attr title  "HV activity, timeavg"
scalar FatTree.Pod[0].racks[0].servers[0].hypervisor.tcpApp[0] 	offState:mean 	-nan
attr source  offState
attr title  "Time in off state, mean"
scalar FatTree.Pod[0].racks[0].servers[0].hypervisor.tcpApp[0] 	offState:timeavg 	-nan
attr source  offState
attr title  "Time in off state, timeavg"
scalar FatTree.Pod[0].racks[0].servers[0].hypervisor.tcpApp[0] 	powerDownState:mean 	-nan
attr source  powerDownState
attr title  "Time in state when shutting down, mean"
scalar FatTree.Pod[0].racks[0].servers[0].hypervisor.tcpApp[0] 	powerDownState:timeavg 	-nan
attr source  powerDownState
attr title  "Time in state when shutting down, timeavg"
scalar FatTree.Pod[0].racks[0].servers[0].hypervisor.tcpApp[0] 	powerUpState:mean 	-nan
attr source  powerUpState
attr title  "Time in state when starting up, mean"
scalar FatTree.Pod[0].racks[0].servers[0].hypervisor.tcpApp[0] 	powerUpState:timeavg 	-nan
attr source  powerUpState
attr title  "Time in state when starting up, timeavg"
scalar FatTree.Pod[0].racks[0].servers[0].hypervisor.tcpApp[0] 	idleState:mean 	1
attr source  idleState
attr title  "Time in idle state, mean"
scalar FatTree.Pod[0].racks[0].servers[0].hypervisor.tcpApp[0] 	idleState:timeavg 	1
attr source  idleState
attr title  "Time in idle state, timeavg"
scalar FatTree.Pod[0].racks[0].servers[0].hypervisor.tcpApp[0] 	busyState:mean 	-nan
attr source  busyState
attr title  "Time in busy state, mean"
scalar FatTree.Pod[0].racks[0].servers[0].hypervisor.tcpApp[0] 	busyState:timeavg 	-nan
attr source  busyState
attr title  "Time in busy state, timeavg"
scalar FatTree.Pod[0].racks[0].servers[0].hypervisor.tcpApp[0] 	countDeadZoneHits:count 	0
attr source  countDeadZoneHits
attr title  "Events which should not happen, count"
scalar FatTree.Pod[0].racks[0].servers[0].hypervisor.tcpApp[0] 	processedFtpJobs12:count 	0
attr source  processedFtpJob12
attr title  "Processed ftp job requests, count"
scalar FatTree.Pod[0].racks[0].servers[0].hypervisor.tcpApp[0] 	processedWebJobs12:count 	0
attr source  processedWebJob12
attr title  "Processed web job requests, count"
scalar FatTree.Pod[0].racks[0].servers[0].hypervisor.tcpApp[0] 	processedFtpJobs11:count 	0
attr source  processedFtpJob11
attr title  "Processed ftp job requests, count"
scalar FatTree.Pod[0].racks[0].servers[0].hypervisor.tcpApp[0] 	processedWebJobs11:count 	0
attr source  processedWebJob11
attr title  "Processed web job requests, count"
scalar FatTree.Pod[0].racks[0].servers[0].hypervisor.tcpApp[0] 	processedFtpJobs10:count 	0
attr source  processedFtpJob10
attr title  "Processed ftp job requests, count"
scalar FatTree.Pod[0].racks[0].servers[0].hypervisor.tcpApp[0] 	processedWebJobs10:count 	0
attr source  processedWebJob10
attr title  "Processed web job requests, count"
scalar FatTree.Pod[0].racks[0].servers[0].hypervisor.tcpApp[0] 	processedFtpJobs9:count 	0
attr source  processedFtpJob9
attr title  "Processed ftp job requests, count"
scalar FatTree.Pod[0].racks[0].servers[0].hypervisor.tcpApp[0] 	processedWebJobs9:count 	0
attr source  processedWebJob9
attr title  "Processed web job requests, count"
scalar FatTree.Pod[0].racks[0].servers[0].hypervisor.tcpApp[0] 	processedFtpJobs8:count 	0
attr source  processedFtpJob8
attr title  "Processed ftp job requests, count"
scalar FatTree.Pod[0].racks[0].servers[0].hypervisor.tcpApp[0] 	processedWebJobs8:count 	0
attr source  processedWebJob8
attr title  "Processed web job requests, count"
scalar FatTree.Pod[0].racks[0].servers[0].hypervisor.tcpApp[0] 	processedFtpJobs7:count 	0
attr source  processedFtpJob7
attr title  "Processed ftp job requests, count"
scalar FatTree.Pod[0].racks[0].servers[0].hypervisor.tcpApp[0] 	processedWebJobs7:count 	0
attr source  processedWebJob7
attr title  "Processed web job requests, count"
scalar FatTree.Pod[0].racks[0].servers[0].hypervisor.tcpApp[0] 	processedFtpJobs6:count 	0
attr source  processedFtpJob6
attr title  "Processed ftp job requests, count"
scalar FatTree.Pod[0].racks[0].servers[0].hypervisor.tcpApp[0] 	processedWebJobs6:count 	0
attr source  processedWebJob6
attr title  "Processed web job requests, count"
scalar FatTree.Pod[0].racks[0].servers[0].hypervisor.tcpApp[0] 	processedFtpJobs5:count 	0
attr source  processedFtpJob5
attr title  "Processed ftp job requests, count"
scalar FatTree.Pod[0].racks[0].servers[0].hypervisor.tcpApp[0] 	processedWebJobs5:count 	0
attr source  processedWebJob5
attr title  "Processed web job requests, count"
scalar FatTree.Pod[0].racks[0].servers[0].hypervisor.tcpApp[0] 	processedFtpJobs4:count 	0
attr source  processedFtpJob4
attr title  "Processed ftp job requests, count"
scalar FatTree.Pod[0].racks[0].servers[0].hypervisor.tcpApp[0] 	processedWebJobs4:count 	0
attr source  processedWebJob4
attr title  "Processed web job requests, count"
scalar FatTree.Pod[0].racks[0].servers[0].hypervisor.tcpApp[0] 	processedFtpJobs3:count 	0
attr source  processedFtpJob3
attr title  "Processed ftp job requests, count"
scalar FatTree.Pod[0].racks[0].servers[0].hypervisor.tcpApp[0] 	processedWebJobs3:count 	0
attr source  processedWebJob3
attr title  "Processed web job requests, count"
scalar FatTree.Pod[0].racks[0].servers[0].hypervisor.tcpApp[0] 	processedFtpJobs2:count 	0
attr source  processedFtpJob2
attr title  "Processed ftp job requests, count"
scalar FatTree.Pod[0].racks[0].servers[0].hypervisor.tcpApp[0] 	processedWebJobs2:count 	0
attr source  processedWebJob2
attr title  "Processed web job requests, count"
scalar FatTree.Pod[0].racks[0].servers[0].hypervisor.tcpApp[0] 	processedFtpJobs1:count 	0
attr source  processedFtpJob1
attr title  "Processed ftp job requests, count"
scalar FatTree.Pod[0].racks[0].servers[0].hypervisor.tcpApp[0] 	processedWebJobs1:count 	0
attr source  processedWebJob1
attr title  "Processed web job requests, count"
statistic FatTree.Pod[0].racks[0].servers[0].hypervisor.tcpApp[0] 	startFinishVMMig:stats
field count 0
field mean 0
field stddev -nan
field sum 0
field sqrsum 0
field min 0
field max 0
attr source  startFinishVMMig
attr title  "Start and end of a VM Migration, stats"
scalar FatTree.Pod[0].racks[0].servers[0].hypervisor.tcpApp[0] 	doneVmMigrations:last 	-nan
attr source  sum(doneVmMigrations)
attr title  "Number of done VM Migrations, last"
scalar FatTree.Pod[0].racks[0].servers[0].hypervisor.tcpApp[0] 	doneVmMigrations:count 	0
attr source  sum(doneVmMigrations)
attr title  "Number of done VM Migrations, count"
scalar FatTree.Pod[0].racks[0].servers[0].hypervisor.tcpApp[0] 	totalPowerConsumption12:timeavg 	-nan
attr source  totalPowerConsumption12
attr title  "Total Power Consumption, timeavg"
statistic FatTree.Pod[0].racks[0].servers[0].hypervisor.tcpApp[0] 	totalPowerConsumption12:stats
field count 0
field mean 0
field stddev -nan
field sum 0
field sqrsum 0
field min 0
field max 0
attr source  totalPowerConsumption12
attr title  "Total Power Consumption, stats"
scalar FatTree.Pod[0].racks[0].servers[0].hypervisor.tcpApp[0] 	totalPowerConsumption11:timeavg 	-nan
attr source  totalPowerConsumption11
attr title  "Total Power Consumption, timeavg"
statistic FatTree.Pod[0].racks[0].servers[0].hypervisor.tcpApp[0] 	totalPowerConsumption11:stats
field count 0
field mean 0
field stddev -nan
field sum 0
field sqrsum 0
field min 0
field max 0
attr source  totalPowerConsumption11
attr title  "Total Power Consumption, stats"
scalar FatTree.Pod[0].racks[0].servers[0].hypervisor.tcpApp[0] 	totalPowerConsumption10:timeavg 	-nan
attr source  totalPowerConsumption10
attr title  "Total Power Consumption, timeavg"
statistic FatTree.Pod[0].racks[0].servers[0].hypervisor.tcpApp[0] 	totalPowerConsumption10:stats
field count 0
field mean 0
field stddev -nan
field sum 0
field sqrsum 0
field min 0
field max 0
attr source  totalPowerConsumption10
attr title  "Total Power Consumption, stats"
scalar FatTree.Pod[0].racks[0].servers[0].hypervisor.tcpApp[0] 	totalPowerConsumption9:timeavg 	-nan
attr source  totalPowerConsumption9
attr title  "Total Power Consumption, timeavg"
statistic FatTree.Pod[0].racks[0].servers[0].hypervisor.tcpApp[0] 	totalPowerConsumption9:stats
field count 0
field mean 0
field stddev -nan
field sum 0
field sqrsum 0
field min 0
field max 0
attr source  totalPowerConsumption9
attr title  "Total Power Consumption, stats"
scalar FatTree.Pod[0].racks[0].servers[0].hypervisor.tcpApp[0] 	totalPowerConsumption8:timeavg 	-nan
attr source  totalPowerConsumption8
attr title  "Total Power Consumption, timeavg"
statistic FatTree.Pod[0].racks[0].servers[0].hypervisor.tcpApp[0] 	totalPowerConsumption8:stats
field count 0
field mean 0
field stddev -nan
field sum 0
field sqrsum 0
field min 0
field max 0
attr source  totalPowerConsumption8
attr title  "Total Power Consumption, stats"
scalar FatTree.Pod[0].racks[0].servers[0].hypervisor.tcpApp[0] 	totalPowerConsumption7:timeavg 	-nan
attr source  totalPowerConsumption7
attr title  "Total Power Consumption, timeavg"
statistic FatTree.Pod[0].racks[0].servers[0].hypervisor.tcpApp[0] 	totalPowerConsumption7:stats
field count 0
field mean 0
field stddev -nan
field sum 0
field sqrsum 0
field min 0
field max 0
attr source  totalPowerConsumption7
attr title  "Total Power Consumption, stats"
scalar FatTree.Pod[0].racks[0].servers[0].hypervisor.tcpApp[0] 	totalPowerConsumption6:timeavg 	-nan
attr source  totalPowerConsumption6
attr title  "Total Power Consumption, timeavg"
statistic FatTree.Pod[0].racks[0].servers[0].hypervisor.tcpApp[0] 	totalPowerConsumption6:stats
field count 0
field mean 0
field stddev -nan
field sum 0
field sqrsum 0
field min 0
field max 0
attr source  totalPowerConsumption6
attr title  "Total Power Consumption, stats"
scalar FatTree.Pod[0].racks[0].servers[0].hypervisor.tcpApp[0] 	totalPowerConsumption5:timeavg 	-nan
attr source  totalPowerConsumption5
attr title  "Total Power Consumption, timeavg"
statistic FatTree.Pod[0].racks[0].servers[0].hypervisor.tcpApp[0] 	totalPowerConsumption5:stats
field count 0
field mean 0
field stddev -nan
field sum 0
field sqrsum 0
field min 0
field max 0
attr source  totalPowerConsumption5
attr title  "Total Power Consumption, stats"
scalar FatTree.Pod[0].racks[0].servers[0].hypervisor.tcpApp[0] 	totalPowerConsumption4:timeavg 	-nan
attr source  totalPowerConsumption4
attr title  "Total Power Consumption, timeavg"
statistic FatTree.Pod[0].racks[0].servers[0].hypervisor.tcpApp[0] 	totalPowerConsumption4:stats
field count 0
field mean 0
field stddev -nan
field sum 0
field sqrsum 0
field min 0
field max 0
attr source  totalPowerConsumption4
attr title  "Total Power Consumption, stats"
scalar FatTree.Pod[0].racks[0].servers[0].hypervisor.tcpApp[0] 	totalPowerConsumption3:timeavg 	-nan
attr source  totalPowerConsumption3
attr title  "Total Power Consumption, timeavg"
statistic FatTree.Pod[0].racks[0].servers[0].hypervisor.tcpApp[0] 	totalPowerConsumption3:stats
field count 0
field mean 0
field stddev -nan
field sum 0
field sqrsum 0
field min 0
field max 0
attr source  totalPowerConsumption3
attr title  "Total Power Consumption, stats"
scalar FatTree.Pod[0].racks[0].servers[0].hypervisor.tcpApp[0] 	totalPowerConsumption2:timeavg 	-nan
attr source  totalPowerConsumption2
attr title  "Total Power Consumption, timeavg"
statistic FatTree.Pod[0].racks[0].servers[0].hypervisor.tcpApp[0] 	totalPowerConsumption2:stats
field count 0
field mean 0
field stddev -nan
field sum 0
field sqrsum 0
field min 0
field max 0
attr source  totalPowerConsumption2
attr title  "Total Power Consumption, stats"
scalar FatTree.Pod[0].racks[0].servers[0].hypervisor.tcpApp[0] 	totalPowerConsumption1:timeavg 	-nan
attr source  totalPowerConsumption1
attr title  "Total Power Consumption, timeavg"
statistic FatTree.Pod[0].racks[0].servers[0].hypervisor.tcpApp[0] 	totalPowerConsumption1:stats
field count 0
field mean 0
field stddev -nan
field sum 0
field sqrsum 0
field min 0
field max 0
attr source  totalPowerConsumption1
attr title  "Total Power Consumption, stats"
statistic FatTree.Pod[0].racks[0].servers[0].hypervisor.tcpApp[0] 	timemovavgFTP:stats
field count 0
field mean 0
field stddev -nan
field sum 0
field sqrsum 0
field min 0
field max 0
attr source  timemovavgFTP
attr title  "TimeExpWeighMovAvg for ftp service, stats"
statistic FatTree.Pod[0].racks[0].servers[0].hypervisor.tcpApp[0] 	timemovavgWeb:stats
field count 0
field mean 0
field stddev -nan
field sum 0
field sqrsum 0
field min 0
field max 0
attr source  timemovavgWeb
attr title  "TimeExpWeighMovAvg for webservice, stats"
scalar FatTree.Pod[0].racks[0].servers[0].hypervisor.tcpApp[0] 	numAllVMs:last 	-nan
attr source  numAllVMs
attr title  "Number of All VMs, last"
scalar FatTree.Pod[0].racks[0].servers[0].hypervisor.tcpApp[0] 	numActiveFTPVMs:timeavg 	-nan
attr source  numActiveFTPVMs
attr title  "Active VMs for FTP service, timeavg"
statistic FatTree.Pod[0].racks[0].servers[0].hypervisor.tcpApp[0] 	numActiveFTPVMs:stats
field count 0
field mean 0
field stddev -nan
field sum 0
field sqrsum 0
field min 0
field max 0
attr source  numActiveFTPVMs
attr title  "Active VMs for FTP service, stats"
scalar FatTree.Pod[0].racks[0].servers[0].hypervisor.tcpApp[0] 	numActiveWebVMs:timeavg 	-nan
attr source  numActiveWebVMs
attr title  "Active VMs for webservice, timeavg"
statistic FatTree.Pod[0].racks[0].servers[0].hypervisor.tcpApp[0] 	numActiveWebVMs:stats
field count 0
field mean 0
field stddev -nan
field sum 0
field sqrsum 0
field min 0
field max 0
attr source  numActiveWebVMs
attr title  "Active VMs for webservice, stats"
statistic FatTree.Pod[0].racks[0].servers[0].hypervisor.tcpApp[0] 	numActiveVMs12:stats
field count 0
field mean 0
field stddev -nan
field sum 0
field sqrsum 0
field min 0
field max 0
attr source  numActiveVMs12
attr title  "Number of Active VMs, stats"
scalar FatTree.Pod[0].racks[0].servers[0].hypervisor.tcpApp[0] 	numActiveVMs12:timeavg 	-nan
attr source  numActiveVMs12
attr title  "Number of Active VMs, timeavg"
statistic FatTree.Pod[0].racks[0].servers[0].hypervisor.tcpApp[0] 	numActiveVMs11:stats
field count 0
field mean 0
field stddev -nan
field sum 0
field sqrsum 0
field min 0
field max 0
attr source  numActiveVMs11
attr title  "Number of Active VMs, stats"
scalar FatTree.Pod[0].racks[0].servers[0].hypervisor.tcpApp[0] 	numActiveVMs11:timeavg 	-nan
attr source  numActiveVMs11
attr title  "Number of Active VMs, timeavg"
statistic FatTree.Pod[0].racks[0].servers[0].hypervisor.tcpApp[0] 	numActiveVMs10:stats
field count 0
field mean 0
field stddev -nan
field sum 0
field sqrsum 0
field min 0
field max 0
attr source  numActiveVMs10
attr title  "Number of Active VMs, stats"
scalar FatTree.Pod[0].racks[0].servers[0].hypervisor.tcpApp[0] 	numActiveVMs10:timeavg 	-nan
attr source  numActiveVMs10
attr title  "Number of Active VMs, timeavg"
statistic FatTree.Pod[0].racks[0].servers[0].hypervisor.tcpApp[0] 	numActiveVMs9:stats
field count 0
field mean 0
field stddev -nan
field sum 0
field sqrsum 0
field min 0
field max 0
attr source  numActiveVMs9
attr title  "Number of Active VMs, stats"
scalar FatTree.Pod[0].racks[0].servers[0].hypervisor.tcpApp[0] 	numActiveVMs9:timeavg 	-nan
attr source  numActiveVMs9
attr title  "Number of Active VMs, timeavg"
statistic FatTree.Pod[0].racks[0].servers[0].hypervisor.tcpApp[0] 	numActiveVMs8:stats
field count 0
field mean 0
field stddev -nan
field sum 0
field sqrsum 0
field min 0
field max 0
attr source  numActiveVMs8
attr title  "Number of Active VMs, stats"
scalar FatTree.Pod[0].racks[0].servers[0].hypervisor.tcpApp[0] 	numActiveVMs8:timeavg 	-nan
attr source  numActiveVMs8
attr title  "Number of Active VMs, timeavg"
statistic FatTree.Pod[0].racks[0].servers[0].hypervisor.tcpApp[0] 	numActiveVMs7:stats
field count 0
field mean 0
field stddev -nan
field sum 0
field sqrsum 0
field min 0
field max 0
attr source  numActiveVMs7
attr title  "Number of Active VMs, stats"
scalar FatTree.Pod[0].racks[0].servers[0].hypervisor.tcpApp[0] 	numActiveVMs7:timeavg 	-nan
attr source  numActiveVMs7
attr title  "Number of Active VMs, timeavg"
statistic FatTree.Pod[0].racks[0].servers[0].hypervisor.tcpApp[0] 	numActiveVMs6:stats
field count 0
field mean 0
field stddev -nan
field sum 0
field sqrsum 0
field min 0
field max 0
attr source  numActiveVMs6
attr title  "Number of Active VMs, stats"
scalar FatTree.Pod[0].racks[0].servers[0].hypervisor.tcpApp[0] 	numActiveVMs6:timeavg 	-nan
attr source  numActiveVMs6
attr title  "Number of Active VMs, timeavg"
statistic FatTree.Pod[0].racks[0].servers[0].hypervisor.tcpApp[0] 	numActiveVMs5:stats
field count 0
field mean 0
field stddev -nan
field sum 0
field sqrsum 0
field min 0
field max 0
attr source  numActiveVMs5
attr title  "Number of Active VMs, stats"
scalar FatTree.Pod[0].racks[0].servers[0].hypervisor.tcpApp[0] 	numActiveVMs5:timeavg 	-nan
attr source  numActiveVMs5
attr title  "Number of Active VMs, timeavg"
statistic FatTree.Pod[0].racks[0].servers[0].hypervisor.tcpApp[0] 	numActiveVMs4:stats
field count 0
field mean 0
field stddev -nan
field sum 0
field sqrsum 0
field min 0
field max 0
attr source  numActiveVMs4
attr title  "Number of Active VMs, stats"
scalar FatTree.Pod[0].racks[0].servers[0].hypervisor.tcpApp[0] 	numActiveVMs4:timeavg 	-nan
attr source  numActiveVMs4
attr title  "Number of Active VMs, timeavg"
statistic FatTree.Pod[0].racks[0].servers[0].hypervisor.tcpApp[0] 	numActiveVMs3:stats
field count 0
field mean 0
field stddev -nan
field sum 0
field sqrsum 0
field min 0
field max 0
attr source  numActiveVMs3
attr title  "Number of Active VMs, stats"
scalar FatTree.Pod[0].racks[0].servers[0].hypervisor.tcpApp[0] 	numActiveVMs3:timeavg 	-nan
attr source  numActiveVMs3
attr title  "Number of Active VMs, timeavg"
statistic FatTree.Pod[0].racks[0].servers[0].hypervisor.tcpApp[0] 	numActiveVMs2:stats
field count 0
field mean 0
field stddev -nan
field sum 0
field sqrsum 0
field min 0
field max 0
attr source  numActiveVMs2
attr title  "Number of Active VMs, stats"
scalar FatTree.Pod[0].racks[0].servers[0].hypervisor.tcpApp[0] 	numActiveVMs2:timeavg 	-nan
attr source  numActiveVMs2
attr title  "Number of Active VMs, timeavg"
statistic FatTree.Pod[0].racks[0].servers[0].hypervisor.tcpApp[0] 	numActiveVMs1:stats
field count 0
field mean 0
field stddev -nan
field sum 0
field sqrsum 0
field min 0
field max 0
attr source  numActiveVMs1
attr title  "Number of Active VMs, stats"
scalar FatTree.Pod[0].racks[0].servers[0].hypervisor.tcpApp[0] 	numActiveVMs1:timeavg 	-nan
attr source  numActiveVMs1
attr title  "Number of Active VMs, timeavg"
scalar FatTree.Pod[0].racks[0].servers[0].hypervisor.tcpApp[0] 	jobQueueFTP12:timeavg 	-nan
attr source  jobQueueFTP12
attr title  "Length of JQ for ftp service, timeavg"
statistic FatTree.Pod[0].racks[0].servers[0].hypervisor.tcpApp[0] 	jobQueueFTP12:stats
field count 0
field mean 0
field stddev -nan
field sum 0
field sqrsum 0
field min 0
field max 0
attr source  jobQueueFTP12
attr title  "Length of JQ for ftp service, stats"
scalar FatTree.Pod[0].racks[0].servers[0].hypervisor.tcpApp[0] 	jobQueueWeb12:timeavg 	-nan
attr source  jobQueueWeb12
attr title  "Length of JQ for webservice, timeavg"
statistic FatTree.Pod[0].racks[0].servers[0].hypervisor.tcpApp[0] 	jobQueueWeb12:stats
field count 0
field mean 0
field stddev -nan
field sum 0
field sqrsum 0
field min 0
field max 0
attr source  jobQueueWeb12
attr title  "Length of JQ for webservice, stats"
scalar FatTree.Pod[0].racks[0].servers[0].hypervisor.tcpApp[0] 	jobQueueFTP11:timeavg 	-nan
attr source  jobQueueFTP11
attr title  "Length of JQ for ftp service, timeavg"
statistic FatTree.Pod[0].racks[0].servers[0].hypervisor.tcpApp[0] 	jobQueueFTP11:stats
field count 0
field mean 0
field stddev -nan
field sum 0
field sqrsum 0
field min 0
field max 0
attr source  jobQueueFTP11
attr title  "Length of JQ for ftp service, stats"
scalar FatTree.Pod[0].racks[0].servers[0].hypervisor.tcpApp[0] 	jobQueueWeb11:timeavg 	-nan
attr source  jobQueueWeb11
attr title  "Length of JQ for webservice, timeavg"
statistic FatTree.Pod[0].racks[0].servers[0].hypervisor.tcpApp[0] 	jobQueueWeb11:stats
field count 0
field mean 0
field stddev -nan
field sum 0
field sqrsum 0
field min 0
field max 0
attr source  jobQueueWeb11
attr title  "Length of JQ for webservice, stats"
scalar FatTree.Pod[0].racks[0].servers[0].hypervisor.tcpApp[0] 	jobQueueFTP10:timeavg 	-nan
attr source  jobQueueFTP10
attr title  "Length of JQ for ftp service, timeavg"
statistic FatTree.Pod[0].racks[0].servers[0].hypervisor.tcpApp[0] 	jobQueueFTP10:stats
field count 0
field mean 0
field stddev -nan
field sum 0
field sqrsum 0
field min 0
field max 0
attr source  jobQueueFTP10
attr title  "Length of JQ for ftp service, stats"
scalar FatTree.Pod[0].racks[0].servers[0].hypervisor.tcpApp[0] 	jobQueueWeb10:timeavg 	-nan
attr source  jobQueueWeb10
attr title  "Length of JQ for webservice, timeavg"
statistic FatTree.Pod[0].racks[0].servers[0].hypervisor.tcpApp[0] 	jobQueueWeb10:stats
field count 0
field mean 0
field stddev -nan
field sum 0
field sqrsum 0
field min 0
field max 0
attr source  jobQueueWeb10
attr title  "Length of JQ for webservice, stats"
scalar FatTree.Pod[0].racks[0].servers[0].hypervisor.tcpApp[0] 	jobQueueFTP9:timeavg 	-nan
attr source  jobQueueFTP9
attr title  "Length of JQ for ftp service, timeavg"
statistic FatTree.Pod[0].racks[0].servers[0].hypervisor.tcpApp[0] 	jobQueueFTP9:stats
field count 0
field mean 0
field stddev -nan
field sum 0
field sqrsum 0
field min 0
field max 0
attr source  jobQueueFTP9
attr title  "Length of JQ for ftp service, stats"
scalar FatTree.Pod[0].racks[0].servers[0].hypervisor.tcpApp[0] 	jobQueueWeb9:timeavg 	-nan
attr source  jobQueueWeb9
attr title  "Length of JQ for webservice, timeavg"
statistic FatTree.Pod[0].racks[0].servers[0].hypervisor.tcpApp[0] 	jobQueueWeb9:stats
field count 0
field mean 0
field stddev -nan
field sum 0
field sqrsum 0
field min 0
field max 0
attr source  jobQueueWeb9
attr title  "Length of JQ for webservice, stats"
scalar FatTree.Pod[0].racks[0].servers[0].hypervisor.tcpApp[0] 	jobQueueFTP8:timeavg 	-nan
attr source  jobQueueFTP8
attr title  "Length of JQ for ftp service, timeavg"
statistic FatTree.Pod[0].racks[0].servers[0].hypervisor.tcpApp[0] 	jobQueueFTP8:stats
field count 0
field mean 0
field stddev -nan
field sum 0
field sqrsum 0
field min 0
field max 0
attr source  jobQueueFTP8
attr title  "Length of JQ for ftp service, stats"
scalar FatTree.Pod[0].racks[0].servers[0].hypervisor.tcpApp[0] 	jobQueueWeb8:timeavg 	-nan
attr source  jobQueueWeb8
attr title  "Length of JQ for webservice, timeavg"
statistic FatTree.Pod[0].racks[0].servers[0].hypervisor.tcpApp[0] 	jobQueueWeb8:stats
field count 0
field mean 0
field stddev -nan
field sum 0
field sqrsum 0
field min 0
field max 0
attr source  jobQueueWeb8
attr title  "Length of JQ for webservice, stats"
scalar FatTree.Pod[0].racks[0].servers[0].hypervisor.tcpApp[0] 	jobQueueFTP7:timeavg 	-nan
attr source  jobQueueFTP7
attr title  "Length of JQ for ftp service, timeavg"
statistic FatTree.Pod[0].racks[0].servers[0].hypervisor.tcpApp[0] 	jobQueueFTP7:stats
field count 0
field mean 0
field stddev -nan
field sum 0
field sqrsum 0
field min 0
field max 0
attr source  jobQueueFTP7
attr title  "Length of JQ for ftp service, stats"
scalar FatTree.Pod[0].racks[0].servers[0].hypervisor.tcpApp[0] 	jobQueueWeb7:timeavg 	-nan
attr source  jobQueueWeb7
attr title  "Length of JQ for webservice, timeavg"
statistic FatTree.Pod[0].racks[0].servers[0].hypervisor.tcpApp[0] 	jobQueueWeb7:stats
field count 0
field mean 0
field stddev -nan
field sum 0
field sqrsum 0
field min 0
field max 0
attr source  jobQueueWeb7
attr title  "Length of JQ for webservice, stats"
scalar FatTree.Pod[0].racks[0].servers[0].hypervisor.tcpApp[0] 	jobQueueFTP6:timeavg 	-nan
attr source  jobQueueFTP6
attr title  "Length of JQ for ftp service, timeavg"
statistic FatTree.Pod[0].racks[0].servers[0].hypervisor.tcpApp[0] 	jobQueueFTP6:stats
field count 0
field mean 0
field stddev -nan
field sum 0
field sqrsum 0
field min 0
field max 0
attr source  jobQueueFTP6
attr title  "Length of JQ for ftp service, stats"
scalar FatTree.Pod[0].racks[0].servers[0].hypervisor.tcpApp[0] 	jobQueueWeb6:timeavg 	-nan
attr source  jobQueueWeb6
attr title  "Length of JQ for webservice, timeavg"
statistic FatTree.Pod[0].racks[0].servers[0].hypervisor.tcpApp[0] 	jobQueueWeb6:stats
field count 0
field mean 0
field stddev -nan
field sum 0
field sqrsum 0
field min 0
field max 0
attr source  jobQueueWeb6
attr title  "Length of JQ for webservice, stats"
scalar FatTree.Pod[0].racks[0].servers[0].hypervisor.tcpApp[0] 	jobQueueFTP5:timeavg 	-nan
attr source  jobQueueFTP5
attr title  "Length of JQ for ftp service, timeavg"
statistic FatTree.Pod[0].racks[0].servers[0].hypervisor.tcpApp[0] 	jobQueueFTP5:stats
field count 0
field mean 0
field stddev -nan
field sum 0
field sqrsum 0
field min 0
field max 0
attr source  jobQueueFTP5
attr title  "Length of JQ for ftp service, stats"
scalar FatTree.Pod[0].racks[0].servers[0].hypervisor.tcpApp[0] 	jobQueueWeb5:timeavg 	-nan
attr source  jobQueueWeb5
attr title  "Length of JQ for webservice, timeavg"
statistic FatTree.Pod[0].racks[0].servers[0].hypervisor.tcpApp[0] 	jobQueueWeb5:stats
field count 0
field mean 0
field stddev -nan
field sum 0
field sqrsum 0
field min 0
field max 0
attr source  jobQueueWeb5
attr title  "Length of JQ for webservice, stats"
scalar FatTree.Pod[0].racks[0].servers[0].hypervisor.tcpApp[0] 	jobQueueFTP4:timeavg 	-nan
attr source  jobQueueFTP4
attr title  "Length of JQ for ftp service, timeavg"
statistic FatTree.Pod[0].racks[0].servers[0].hypervisor.tcpApp[0] 	jobQueueFTP4:stats
field count 0
field mean 0
field stddev -nan
field sum 0
field sqrsum 0
field min 0
field max 0
attr source  jobQueueFTP4
attr title  "Length of JQ for ftp service, stats"
scalar FatTree.Pod[0].racks[0].servers[0].hypervisor.tcpApp[0] 	jobQueueWeb4:timeavg 	-nan
attr source  jobQueueWeb4
attr title  "Length of JQ for webservice, timeavg"
statistic FatTree.Pod[0].racks[0].servers[0].hypervisor.tcpApp[0] 	jobQueueWeb4:stats
field count 0
field mean 0
field stddev -nan
field sum 0
field sqrsum 0
field min 0
field max 0
attr source  jobQueueWeb4
attr title  "Length of JQ for webservice, stats"
scalar FatTree.Pod[0].racks[0].servers[0].hypervisor.tcpApp[0] 	jobQueueFTP3:timeavg 	-nan
attr source  jobQueueFTP3
attr title  "Length of JQ for ftp service, timeavg"
statistic FatTree.Pod[0].racks[0].servers[0].hypervisor.tcpApp[0] 	jobQueueFTP3:stats
field count 0
field mean 0
field stddev -nan
field sum 0
field sqrsum 0
field min 0
field max 0
attr source  jobQueueFTP3
attr title  "Length of JQ for ftp service, stats"
scalar FatTree.Pod[0].racks[0].servers[0].hypervisor.tcpApp[0] 	jobQueueWeb3:timeavg 	-nan
attr source  jobQueueWeb3
attr title  "Length of JQ for webservice, timeavg"
statistic FatTree.Pod[0].racks[0].servers[0].hypervisor.tcpApp[0] 	jobQueueWeb3:stats
field count 0
field mean 0
field stddev -nan
field sum 0
field sqrsum 0
field min 0
field max 0
attr source  jobQueueWeb3
attr title  "Length of JQ for webservice, stats"
scalar FatTree.Pod[0].racks[0].servers[0].hypervisor.tcpApp[0] 	jobQueueFTP2:timeavg 	-nan
attr source  jobQueueFTP2
attr title  "Length of JQ for ftp service, timeavg"
statistic FatTree.Pod[0].racks[0].servers[0].hypervisor.tcpApp[0] 	jobQueueFTP2:stats
field count 0
field mean 0
field stddev -nan
field sum 0
field sqrsum 0
field min 0
field max 0
attr source  jobQueueFTP2
attr title  "Length of JQ for ftp service, stats"
scalar FatTree.Pod[0].racks[0].servers[0].hypervisor.tcpApp[0] 	jobQueueWeb2:timeavg 	-nan
attr source  jobQueueWeb2
attr title  "Length of JQ for webservice, timeavg"
statistic FatTree.Pod[0].racks[0].servers[0].hypervisor.tcpApp[0] 	jobQueueWeb2:stats
field count 0
field mean 0
field stddev -nan
field sum 0
field sqrsum 0
field min 0
field max 0
attr source  jobQueueWeb2
attr title  "Length of JQ for webservice, stats"
scalar FatTree.Pod[0].racks[0].servers[0].hypervisor.tcpApp[0] 	jobQueueFTP1:timeavg 	-nan
attr source  jobQueueFTP1
attr title  "Length of JQ for ftp service, timeavg"
statistic FatTree.Pod[0].racks[0].servers[0].hypervisor.tcpApp[0] 	jobQueueFTP1:stats
field count 0
field mean 0
field stddev -nan
field sum 0
field sqrsum 0
field min 0
field max 0
attr source  jobQueueFTP1
attr title  "Length of JQ for ftp service, stats"
scalar FatTree.Pod[0].racks[0].servers[0].hypervisor.tcpApp[0] 	jobQueueWeb1:timeavg 	-nan
attr source  jobQueueWeb1
attr title  "Length of JQ for webservice, timeavg"
statistic FatTree.Pod[0].racks[0].servers[0].hypervisor.tcpApp[0] 	jobQueueWeb1:stats
field count 0
field mean 0
field stddev -nan
field sum 0
field sqrsum 0
field min 0
field max 0
attr source  jobQueueWeb1
attr title  "Length of JQ for webservice, stats"
statistic FatTree.Pod[0].racks[0].servers[0].hypervisor.tcpApp[0] 	numBusyVMs12:stats
field count 0
field mean 0
field stddev -nan
field sum 0
field sqrsum 0
field min 0
field max 0
attr source  numBusyVMs12
attr title  "Number of busy vms - processing a job, stats"
scalar FatTree.Pod[0].racks[0].servers[0].hypervisor.tcpApp[0] 	numBusyVMs12:timeavg 	-nan
attr source  numBusyVMs12
attr title  "Number of busy vms - processing a job, timeavg"
statistic FatTree.Pod[0].racks[0].servers[0].hypervisor.tcpApp[0] 	numBusyVMs11:stats
field count 0
field mean 0
field stddev -nan
field sum 0
field sqrsum 0
field min 0
field max 0
attr source  numBusyVMs11
attr title  "Number of busy vms - processing a job, stats"
scalar FatTree.Pod[0].racks[0].servers[0].hypervisor.tcpApp[0] 	numBusyVMs11:timeavg 	-nan
attr source  numBusyVMs11
attr title  "Number of busy vms - processing a job, timeavg"
statistic FatTree.Pod[0].racks[0].servers[0].hypervisor.tcpApp[0] 	numBusyVMs10:stats
field count 0
field mean 0
field stddev -nan
field sum 0
field sqrsum 0
field min 0
field max 0
attr source  numBusyVMs10
attr title  "Number of busy vms - processing a job, stats"
scalar FatTree.Pod[0].racks[0].servers[0].hypervisor.tcpApp[0] 	numBusyVMs10:timeavg 	-nan
attr source  numBusyVMs10
attr title  "Number of busy vms - processing a job, timeavg"
statistic FatTree.Pod[0].racks[0].servers[0].hypervisor.tcpApp[0] 	numBusyVMs9:stats
field count 0
field mean 0
field stddev -nan
field sum 0
field sqrsum 0
field min 0
field max 0
attr source  numBusyVMs9
attr title  "Number of busy vms - processing a job, stats"
scalar FatTree.Pod[0].racks[0].servers[0].hypervisor.tcpApp[0] 	numBusyVMs9:timeavg 	-nan
attr source  numBusyVMs9
attr title  "Number of busy vms - processing a job, timeavg"
statistic FatTree.Pod[0].racks[0].servers[0].hypervisor.tcpApp[0] 	numBusyVMs8:stats
field count 0
field mean 0
field stddev -nan
field sum 0
field sqrsum 0
field min 0
field max 0
attr source  numBusyVMs8
attr title  "Number of busy vms - processing a job, stats"
scalar FatTree.Pod[0].racks[0].servers[0].hypervisor.tcpApp[0] 	numBusyVMs8:timeavg 	-nan
attr source  numBusyVMs8
attr title  "Number of busy vms - processing a job, timeavg"
statistic FatTree.Pod[0].racks[0].servers[0].hypervisor.tcpApp[0] 	numBusyVMs7:stats
field count 0
field mean 0
field stddev -nan
field sum 0
field sqrsum 0
field min 0
field max 0
attr source  numBusyVMs7
attr title  "Number of busy vms - processing a job, stats"
scalar FatTree.Pod[0].racks[0].servers[0].hypervisor.tcpApp[0] 	numBusyVMs7:timeavg 	-nan
attr source  numBusyVMs7
attr title  "Number of busy vms - processing a job, timeavg"
statistic FatTree.Pod[0].racks[0].servers[0].hypervisor.tcpApp[0] 	numBusyVMs6:stats
field count 0
field mean 0
field stddev -nan
field sum 0
field sqrsum 0
field min 0
field max 0
attr source  numBusyVMs6
attr title  "Number of busy vms - processing a job, stats"
scalar FatTree.Pod[0].racks[0].servers[0].hypervisor.tcpApp[0] 	numBusyVMs6:timeavg 	-nan
attr source  numBusyVMs6
attr title  "Number of busy vms - processing a job, timeavg"
statistic FatTree.Pod[0].racks[0].servers[0].hypervisor.tcpApp[0] 	numBusyVMs5:stats
field count 0
field mean 0
field stddev -nan
field sum 0
field sqrsum 0
field min 0
field max 0
attr source  numBusyVMs5
attr title  "Number of busy vms - processing a job, stats"
scalar FatTree.Pod[0].racks[0].servers[0].hypervisor.tcpApp[0] 	numBusyVMs5:timeavg 	-nan
attr source  numBusyVMs5
attr title  "Number of busy vms - processing a job, timeavg"
statistic FatTree.Pod[0].racks[0].servers[0].hypervisor.tcpApp[0] 	numBusyVMs4:stats
field count 0
field mean 0
field stddev -nan
field sum 0
field sqrsum 0
field min 0
field max 0
attr source  numBusyVMs4
attr title  "Number of busy vms - processing a job, stats"
scalar FatTree.Pod[0].racks[0].servers[0].hypervisor.tcpApp[0] 	numBusyVMs4:timeavg 	-nan
attr source  numBusyVMs4
attr title  "Number of busy vms - processing a job, timeavg"
statistic FatTree.Pod[0].racks[0].servers[0].hypervisor.tcpApp[0] 	numBusyVMs3:stats
field count 0
field mean 0
field stddev -nan
field sum 0
field sqrsum 0
field min 0
field max 0
attr source  numBusyVMs3
attr title  "Number of busy vms - processing a job, stats"
scalar FatTree.Pod[0].racks[0].servers[0].hypervisor.tcpApp[0] 	numBusyVMs3:timeavg 	-nan
attr source  numBusyVMs3
attr title  "Number of busy vms - processing a job, timeavg"
statistic FatTree.Pod[0].racks[0].servers[0].hypervisor.tcpApp[0] 	numBusyVMs2:stats
field count 0
field mean 0
field stddev -nan
field sum 0
field sqrsum 0
field min 0
field max 0
attr source  numBusyVMs2
attr title  "Number of busy vms - processing a job, stats"
scalar FatTree.Pod[0].racks[0].servers[0].hypervisor.tcpApp[0] 	numBusyVMs2:timeavg 	-nan
attr source  numBusyVMs2
attr title  "Number of busy vms - processing a job, timeavg"
statistic FatTree.Pod[0].racks[0].servers[0].hypervisor.tcpApp[0] 	numBusyVMs1:stats
field count 0
field mean 0
field stddev -nan
field sum 0
field sqrsum 0
field min 0
field max 0
attr source  numBusyVMs1
attr title  "Number of busy vms - processing a job, stats"
scalar FatTree.Pod[0].racks[0].servers[0].hypervisor.tcpApp[0] 	numBusyVMs1:timeavg 	-nan
attr source  numBusyVMs1
attr title  "Number of busy vms - processing a job, timeavg"
scalar FatTree.Pod[0].racks[0].servers[0].hypervisor.tcpApp[0] 	numFreeFTPVMs:timeavg 	-nan
attr source  numFreeFTPVMs
attr title  "Free VMs for FTP service, timeavg"
statistic FatTree.Pod[0].racks[0].servers[0].hypervisor.tcpApp[0] 	numFreeFTPVMs:stats
field count 0
field mean 0
field stddev -nan
field sum 0
field sqrsum 0
field min 0
field max 0
attr source  numFreeFTPVMs
attr title  "Free VMs for FTP service, stats"
scalar FatTree.Pod[0].racks[0].servers[0].hypervisor.tcpApp[0] 	numFreeWebVMs:timeavg 	-nan
attr source  numFreeWebVMs
attr title  "Free VMs for webservice, timeavg"
statistic FatTree.Pod[0].racks[0].servers[0].hypervisor.tcpApp[0] 	numFreeWebVMs:stats
field count 0
field mean 0
field stddev -nan
field sum 0
field sqrsum 0
field min 0
field max 0
attr source  numFreeWebVMs
attr title  "Free VMs for webservice, stats"
statistic FatTree.Pod[0].racks[0].servers[0].hypervisor.tcpApp[0] 	serverState12:stats
field count 0
field mean 0
field stddev -nan
field sum 0
field sqrsum 0
field min 0
field max 0
attr source  globalServerState12
attr title  "Active Servers, stats"
scalar FatTree.Pod[0].racks[0].servers[0].hypervisor.tcpApp[0] 	serverState12:timeavg 	-nan
attr source  globalServerState12
attr title  "Active Servers, timeavg"
statistic FatTree.Pod[0].racks[0].servers[0].hypervisor.tcpApp[0] 	serverState11:stats
field count 0
field mean 0
field stddev -nan
field sum 0
field sqrsum 0
field min 0
field max 0
attr source  globalServerState11
attr title  "Active Servers, stats"
scalar FatTree.Pod[0].racks[0].servers[0].hypervisor.tcpApp[0] 	serverState11:timeavg 	-nan
attr source  globalServerState11
attr title  "Active Servers, timeavg"
statistic FatTree.Pod[0].racks[0].servers[0].hypervisor.tcpApp[0] 	serverState10:stats
field count 0
field mean 0
field stddev -nan
field sum 0
field sqrsum 0
field min 0
field max 0
attr source  globalServerState10
attr title  "Active Servers, stats"
scalar FatTree.Pod[0].racks[0].servers[0].hypervisor.tcpApp[0] 	serverState10:timeavg 	-nan
attr source  globalServerState10
attr title  "Active Servers, timeavg"
statistic FatTree.Pod[0].racks[0].servers[0].hypervisor.tcpApp[0] 	serverState9:stats
field count 0
field mean 0
field stddev -nan
field sum 0
field sqrsum 0
field min 0
field max 0
attr source  globalServerState9
attr title  "Active Servers, stats"
scalar FatTree.Pod[0].racks[0].servers[0].hypervisor.tcpApp[0] 	serverState9:timeavg 	-nan
attr source  globalServerState9
attr title  "Active Servers, timeavg"
statistic FatTree.Pod[0].racks[0].servers[0].hypervisor.tcpApp[0] 	serverState8:stats
field count 0
field mean 0
field stddev -nan
field sum 0
field sqrsum 0
field min 0
field max 0
attr source  globalServerState8
attr title  "Active Servers, stats"
scalar FatTree.Pod[0].racks[0].servers[0].hypervisor.tcpApp[0] 	serverState8:timeavg 	-nan
attr source  globalServerState8
attr title  "Active Servers, timeavg"
statistic FatTree.Pod[0].racks[0].servers[0].hypervisor.tcpApp[0] 	serverState7:stats
field count 0
field mean 0
field stddev -nan
field sum 0
field sqrsum 0
field min 0
field max 0
attr source  globalServerState7
attr title  "Active Servers, stats"
scalar FatTree.Pod[0].racks[0].servers[0].hypervisor.tcpApp[0] 	serverState7:timeavg 	-nan
attr source  globalServerState7
attr title  "Active Servers, timeavg"
statistic FatTree.Pod[0].racks[0].servers[0].hypervisor.tcpApp[0] 	serverState6:stats
field count 0
field mean 0
field stddev -nan
field sum 0
field sqrsum 0
field min 0
field max 0
attr source  globalServerState6
attr title  "Active Servers, stats"
scalar FatTree.Pod[0].racks[0].servers[0].hypervisor.tcpApp[0] 	serverState6:timeavg 	-nan
attr source  globalServerState6
attr title  "Active Servers, timeavg"
statistic FatTree.Pod[0].racks[0].servers[0].hypervisor.tcpApp[0] 	serverState5:stats
field count 0
field mean 0
field stddev -nan
field sum 0
field sqrsum 0
field min 0
field max 0
attr source  globalServerState5
attr title  "Active Servers, stats"
scalar FatTree.Pod[0].racks[0].servers[0].hypervisor.tcpApp[0] 	serverState5:timeavg 	-nan
attr source  globalServerState5
attr title  "Active Servers, timeavg"
statistic FatTree.Pod[0].racks[0].servers[0].hypervisor.tcpApp[0] 	serverState4:stats
field count 0
field mean 0
field stddev -nan
field sum 0
field sqrsum 0
field min 0
field max 0
attr source  globalServerState4
attr title  "Active Servers, stats"
scalar FatTree.Pod[0].racks[0].servers[0].hypervisor.tcpApp[0] 	serverState4:timeavg 	-nan
attr source  globalServerState4
attr title  "Active Servers, timeavg"
statistic FatTree.Pod[0].racks[0].servers[0].hypervisor.tcpApp[0] 	serverState3:stats
field count 0
field mean 0
field stddev -nan
field sum 0
field sqrsum 0
field min 0
field max 0
attr source  globalServerState3
attr title  "Active Servers, stats"
scalar FatTree.Pod[0].racks[0].servers[0].hypervisor.tcpApp[0] 	serverState3:timeavg 	-nan
attr source  globalServerState3
attr title  "Active Servers, timeavg"
statistic FatTree.Pod[0].racks[0].servers[0].hypervisor.tcpApp[0] 	serverState2:stats
field count 0
field mean 0
field stddev -nan
field sum 0
field sqrsum 0
field min 0
field max 0
attr source  globalServerState2
attr title  "Active Servers, stats"
scalar FatTree.Pod[0].racks[0].servers[0].hypervisor.tcpApp[0] 	serverState2:timeavg 	-nan
attr source  globalServerState2
attr title  "Active Servers, timeavg"
statistic FatTree.Pod[0].racks[0].servers[0].hypervisor.tcpApp[0] 	serverState1:stats
field count 0
field mean 0
field stddev -nan
field sum 0
field sqrsum 0
field min 0
field max 0
attr source  globalServerState1
attr title  "Active Servers, stats"
scalar FatTree.Pod[0].racks[0].servers[0].hypervisor.tcpApp[0] 	serverState1:timeavg 	-nan
attr source  globalServerState1
attr title  "Active Servers, timeavg"
scalar FatTree.Pod[0].racks[0].servers[1].vms[0].tcpApp[0] 	offState:mean 	-nan
attr source  offState
attr title  "Time in off state, mean"
[...]
attr source  jobQueueWeb12
attr title  "Length of JQ for webservice, timeavg"
statistic FatTree.Controller.TrafficController.tcpApp[0] 	jobQueueWeb12:stats
field count 0
field mean 0
field stddev -nan
field sum 0
field sqrsum 0
field min 0
field max 0
attr source  jobQueueWeb12
attr title  "Length of JQ for webservice, stats"
scalar FatTree.Controller.TrafficController.tcpApp[0] 	jobQueueFTP11:timeavg 	-nan
attr source  jobQueueFTP11
attr title  "Length of JQ for ftp service, timeavg"
statistic FatTree.Controller.TrafficController.tcpApp[0] 	jobQueueFTP11:stats
field count 0
field mean 0
field stddev -nan
field sum 0
field sqrsum 0
field min 0
field max 0
attr source  jobQueueFTP11
attr title  "Length of JQ for ftp service, stats"
scalar FatTree.Controller.TrafficController.tcpApp[0] 	jobQueueWeb11:timeavg 	-nan
attr source  jobQueueWeb11
attr title  "Length of JQ for webservice, timeavg"
statistic FatTree.Controller.TrafficController.tcpApp[0] 	jobQueueWeb11:stats
field count 0
field mean 0
field stddev -nan
field sum 0
field sqrsum 0
field min 0
field max 0
attr source  jobQueueWeb11
attr title  "Length of JQ for webservice, stats"
scalar FatTree.Controller.TrafficController.tcpApp[0] 	jobQueueFTP10:timeavg 	-nan
attr source  jobQueueFTP10
attr title  "Length of JQ for ftp service, timeavg"
statistic FatTree.Controller.TrafficController.tcpApp[0] 	jobQueueFTP10:stats
field count 0
field mean 0
field stddev -nan
field sum 0
field sqrsum 0
field min 0
field max 0
attr source  jobQueueFTP10
attr title  "Length of JQ for ftp service, stats"
scalar FatTree.Controller.TrafficController.tcpApp[0] 	jobQueueWeb10:timeavg 	-nan
attr source  jobQueueWeb10
attr title  "Length of JQ for webservice, timeavg"
statistic FatTree.Controller.TrafficController.tcpApp[0] 	jobQueueWeb10:stats
field count 0
field mean 0
field stddev -nan
field sum 0
field sqrsum 0
field min 0
field max 0
attr source  jobQueueWeb10
attr title  "Length of JQ for webservice, stats"
scalar FatTree.Controller.TrafficController.tcpApp[0] 	jobQueueFTP9:timeavg 	-nan
attr source  jobQueueFTP9
attr title  "Length of JQ for ftp service, timeavg"
statistic FatTree.Controller.TrafficController.tcpApp[0] 	jobQueueFTP9:stats
field count 0
field mean 0
field stddev -nan
field sum 0
field sqrsum 0
field min 0
field max 0
attr source  jobQueueFTP9
attr title  "Length of JQ for ftp service, stats"
scalar FatTree.Controller.TrafficController.tcpApp[0] 	jobQueueWeb9:timeavg 	-nan
attr source  jobQueueWeb9
attr title  "Length of JQ for webservice, timeavg"
statistic FatTree.Controller.TrafficController.tcpApp[0] 	jobQueueWeb9:stats
field count 0
field mean 0
field stddev -nan
field sum 0
field sqrsum 0
field min 0
field max 0
attr source  jobQueueWeb9
attr title  "Length of JQ for webservice, stats"
scalar FatTree.Controller.TrafficController.tcpApp[0] 	jobQueueFTP8:timeavg 	-nan
attr source  jobQueueFTP8
attr title  "Length of JQ for ftp service, timeavg"
statistic FatTree.Controller.TrafficController.tcpApp[0] 	jobQueueFTP8:stats
field count 0
field mean 0
field stddev -nan
field sum 0
field sqrsum 0
field min 0
field max 0
attr source  jobQueueFTP8
attr title  "Length of JQ for ftp service, stats"
scalar FatTree.Controller.TrafficController.tcpApp[0] 	jobQueueWeb8:timeavg 	-nan
attr source  jobQueueWeb8
attr title  "Length of JQ for webservice, timeavg"
statistic FatTree.Controller.TrafficController.tcpApp[0] 	jobQueueWeb8:stats
field count 0
field mean 0
field stddev -nan
field sum 0
field sqrsum 0
field min 0
field max 0
attr source  jobQueueWeb8
attr title  "Length of JQ for webservice, stats"
scalar FatTree.Controller.TrafficController.tcpApp[0] 	jobQueueFTP7:timeavg 	-nan
attr source  jobQueueFTP7
attr title  "Length of JQ for ftp service, timeavg"
statistic FatTree.Controller.TrafficController.tcpApp[0] 	jobQueueFTP7:stats
field count 0
field mean 0
field stddev -nan
field sum 0
field sqrsum 0
field min 0
field max 0
attr source  jobQueueFTP7
attr title  "Length of JQ for ftp service, stats"
scalar FatTree.Controller.TrafficController.tcpApp[0] 	jobQueueWeb7:timeavg 	-nan
attr source  jobQueueWeb7
attr title  "Length of JQ for webservice, timeavg"
statistic FatTree.Controller.TrafficController.tcpApp[0] 	jobQueueWeb7:stats
field count 0
field mean 0
field stddev -nan
field sum 0
field sqrsum 0
field min 0
field max 0
attr source  jobQueueWeb7
attr title  "Length of JQ for webservice, stats"
scalar FatTree.Controller.TrafficController.tcpApp[0] 	jobQueueFTP6:timeavg 	-nan
attr source  jobQueueFTP6
attr title  "Length of JQ for ftp service, timeavg"
statistic FatTree.Controller.TrafficController.tcpApp[0] 	jobQueueFTP6:stats
field count 0
field mean 0
field stddev -nan
field sum 0
field sqrsum 0
field min 0
field max 0
attr source  jobQueueFTP6
attr title  "Length of JQ for ftp service, stats"
scalar FatTree.Controller.TrafficController.tcpApp[0] 	jobQueueWeb6:timeavg 	-nan
attr source  jobQueueWeb6
attr title  "Length of JQ for webservice, timeavg"
statistic FatTree.Controller.TrafficController.tcpApp[0] 	jobQueueWeb6:stats
field count 0
field mean 0
field stddev -nan
field sum 0
field sqrsum 0
field min 0
field max 0
attr source  jobQueueWeb6
attr title  "Length of JQ for webservice, stats"
scalar FatTree.Controller.TrafficController.tcpApp[0] 	jobQueueFTP5:timeavg 	-nan
attr source  jobQueueFTP5
attr title  "Length of JQ for ftp service, timeavg"
statistic FatTree.Controller.TrafficController.tcpApp[0] 	jobQueueFTP5:stats
field count 0
field mean 0
field stddev -nan
field sum 0
field sqrsum 0
field min 0
field max 0
attr source  jobQueueFTP5
attr title  "Length of JQ for ftp service, stats"
scalar FatTree.Controller.TrafficController.tcpApp[0] 	jobQueueWeb5:timeavg 	-nan
attr source  jobQueueWeb5
attr title  "Length of JQ for webservice, timeavg"
statistic FatTree.Controller.TrafficController.tcpApp[0] 	jobQueueWeb5:stats
field count 0
field mean 0
field stddev -nan
field sum 0
field sqrsum 0
field min 0
field max 0
attr source  jobQueueWeb5
attr title  "Length of JQ for webservice, stats"
scalar FatTree.Controller.TrafficController.tcpApp[0] 	jobQueueFTP4:timeavg 	-nan
attr source  jobQueueFTP4
attr title  "Length of JQ for ftp service, timeavg"
statistic FatTree.Controller.TrafficController.tcpApp[0] 	jobQueueFTP4:stats
field count 0
field mean 0
field stddev -nan
field sum 0
field sqrsum 0
field min 0
field max 0
attr source  jobQueueFTP4
attr title  "Length of JQ for ftp service, stats"
scalar FatTree.Controller.TrafficController.tcpApp[0] 	jobQueueWeb4:timeavg 	-nan
attr source  jobQueueWeb4
attr title  "Length of JQ for webservice, timeavg"
statistic FatTree.Controller.TrafficController.tcpApp[0] 	jobQueueWeb4:stats
field count 0
field mean 0
field stddev -nan
field sum 0
field sqrsum 0
field min 0
field max 0
attr source  jobQueueWeb4
attr title  "Length of JQ for webservice, stats"
scalar FatTree.Controller.TrafficController.tcpApp[0] 	jobQueueFTP3:timeavg 	-nan
attr source  jobQueueFTP3
attr title  "Length of JQ for ftp service, timeavg"
statistic FatTree.Controller.TrafficController.tcpApp[0] 	jobQueueFTP3:stats
field count 0
field mean 0
field stddev -nan
field sum 0
field sqrsum 0
field min 0
field max 0
attr source  jobQueueFTP3
attr title  "Length of JQ for ftp service, stats"
scalar FatTree.Controller.TrafficController.tcpApp[0] 	jobQueueWeb3:timeavg 	-nan
attr source  jobQueueWeb3
attr title  "Length of JQ for webservice, timeavg"
statistic FatTree.Controller.TrafficController.tcpApp[0] 	jobQueueWeb3:stats
field count 0
field mean 0
field stddev -nan
field sum 0
field sqrsum 0
field min 0
field max 0
attr source  jobQueueWeb3
attr title  "Length of JQ for webservice, stats"
scalar FatTree.Controller.TrafficController.tcpApp[0] 	jobQueueFTP2:timeavg 	-nan
attr source  jobQueueFTP2
attr title  "Length of JQ for ftp service, timeavg"
statistic FatTree.Controller.TrafficController.tcpApp[0] 	jobQueueFTP2:stats
field count 0
field mean 0
field stddev -nan
field sum 0
field sqrsum 0
field min 0
field max 0
attr source  jobQueueFTP2
attr title  "Length of JQ for ftp service, stats"
scalar FatTree.Controller.TrafficController.tcpApp[0] 	jobQueueWeb2:timeavg 	-nan
attr source  jobQueueWeb2
attr title  "Length of JQ for webservice, timeavg"
statistic FatTree.Controller.TrafficController.tcpApp[0] 	jobQueueWeb2:stats
field count 0
field mean 0
field stddev -nan
field sum 0
field sqrsum 0
field min 0
field max 0
attr source  jobQueueWeb2
attr title  "Length of JQ for webservice, stats"
scalar FatTree.Controller.TrafficController.tcpApp[0] 	jobQueueFTP1:timeavg 	-nan
attr source  jobQueueFTP1
attr title  "Length of JQ for ftp service, timeavg"
statistic FatTree.Controller.TrafficController.tcpApp[0] 	jobQueueFTP1:stats
field count 0
field mean 0
field stddev -nan
field sum 0
field sqrsum 0
field min 0
field max 0
attr source  jobQueueFTP1
attr title  "Length of JQ for ftp service, stats"
scalar FatTree.Controller.TrafficController.tcpApp[0] 	jobQueueWeb1:timeavg 	-nan
attr source  jobQueueWeb1
attr title  "Length of JQ for webservice, timeavg"
statistic FatTree.Controller.TrafficController.tcpApp[0] 	jobQueueWeb1:stats
field count 0
field mean 0
field stddev -nan
field sum 0
field sqrsum 0
field min 0
field max 0
attr source  jobQueueWeb1
attr title  "Length of JQ for webservice, stats"
statistic FatTree.Controller.TrafficController.tcpApp[0] 	numBusyVMs12:stats
field count 0
field mean 0
field stddev -nan
field sum 0
field sqrsum 0
field min 0
field max 0
attr source  numBusyVMs12
attr title  "Number of busy vms - processing a job, stats"
scalar FatTree.Controller.TrafficController.tcpApp[0] 	numBusyVMs12:timeavg 	-nan
attr source  numBusyVMs12
attr title  "Number of busy vms - processing a job, timeavg"
statistic FatTree.Controller.TrafficController.tcpApp[0] 	numBusyVMs11:stats
field count 0
field mean 0
field stddev -nan
field sum 0
field sqrsum 0
field min 0
field max 0
attr source  numBusyVMs11
attr title  "Number of busy vms - processing a job, stats"
scalar FatTree.Controller.TrafficController.tcpApp[0] 	numBusyVMs11:timeavg 	-nan
attr source  numBusyVMs11
attr title  "Number of busy vms - processing a job, timeavg"
statistic FatTree.Controller.TrafficController.tcpApp[0] 	numBusyVMs10:stats
field count 0
field mean 0
field stddev -nan
field sum 0
field sqrsum 0
field min 0
field max 0
attr source  numBusyVMs10
attr title  "Number of busy vms - processing a job, stats"
scalar FatTree.Controller.TrafficController.tcpApp[0] 	numBusyVMs10:timeavg 	-nan
attr source  numBusyVMs10
attr title  "Number of busy vms - processing a job, timeavg"
statistic FatTree.Controller.TrafficController.tcpApp[0] 	numBusyVMs9:stats
field count 0
field mean 0
field stddev -nan
field sum 0
field sqrsum 0
field min 0
field max 0
attr source  numBusyVMs9
attr title  "Number of busy vms - processing a job, stats"
scalar FatTree.Controller.TrafficController.tcpApp[0] 	numBusyVMs9:timeavg 	-nan
attr source  numBusyVMs9
attr title  "Number of busy vms - processing a job, timeavg"
statistic FatTree.Controller.TrafficController.tcpApp[0] 	numBusyVMs8:stats
field count 0
field mean 0
field stddev -nan
field sum 0
field sqrsum 0
field min 0
field max 0
attr source  numBusyVMs8
attr title  "Number of busy vms - processing a job, stats"
scalar FatTree.Controller.TrafficController.tcpApp[0] 	numBusyVMs8:timeavg 	-nan
attr source  numBusyVMs8
attr title  "Number of busy vms - processing a job, timeavg"
statistic FatTree.Controller.TrafficController.tcpApp[0] 	numBusyVMs7:stats
field count 0
field mean 0
field stddev -nan
field sum 0
field sqrsum 0
field min 0
field max 0
attr source  numBusyVMs7
attr title  "Number of busy vms - processing a job, stats"
scalar FatTree.Controller.TrafficController.tcpApp[0] 	numBusyVMs7:timeavg 	-nan
attr source  numBusyVMs7
attr title  "Number of busy vms - processing a job, timeavg"
statistic FatTree.Controller.TrafficController.tcpApp[0] 	numBusyVMs6:stats
field count 0
field mean 0
field stddev -nan
field sum 0
field sqrsum 0
field min 0
field max 0
attr source  numBusyVMs6
attr title  "Number of busy vms - processing a job, stats"
scalar FatTree.Controller.TrafficController.tcpApp[0] 	numBusyVMs6:timeavg 	-nan
attr source  numBusyVMs6
attr title  "Number of busy vms - processing a job, timeavg"
statistic FatTree.Controller.TrafficController.tcpApp[0] 	numBusyVMs5:stats
field count 0
field mean 0
field stddev -nan
field sum 0
field sqrsum 0
field min 0
field max 0
attr source  numBusyVMs5
attr title  "Number of busy vms - processing a job, stats"
scalar FatTree.Controller.TrafficController.tcpApp[0] 	numBusyVMs5:timeavg 	-nan
attr source  numBusyVMs5
attr title  "Number of busy vms - processing a job, timeavg"
statistic FatTree.Controller.TrafficController.tcpApp[0] 	numBusyVMs4:stats
field count 0
field mean 0
field stddev -nan
field sum 0
field sqrsum 0
field min 0
field max 0
attr source  numBusyVMs4
attr title  "Number of busy vms - processing a job, stats"
scalar FatTree.Controller.TrafficController.tcpApp[0] 	numBusyVMs4:timeavg 	-nan
attr source  numBusyVMs4
attr title  "Number of busy vms - processing a job, timeavg"
statistic FatTree.Controller.TrafficController.tcpApp[0] 	numBusyVMs3:stats
field count 0
field mean 0
field stddev -nan
field sum 0
field sqrsum 0
field min 0
field max 0
attr source  numBusyVMs3
attr title  "Number of busy vms - processing a job, stats"
scalar FatTree.Controller.TrafficController.tcpApp[0] 	numBusyVMs3:timeavg 	-nan
attr source  numBusyVMs3
attr title  "Number of busy vms - processing a job, timeavg"
statistic FatTree.Controller.TrafficController.tcpApp[0] 	numBusyVMs2:stats
field count 0
field mean 0
field stddev -nan
field sum 0
field sqrsum 0
field min 0
field max 0
attr source  numBusyVMs2
attr title  "Number of busy vms - processing a job, stats"
scalar FatTree.Controller.TrafficController.tcpApp[0] 	numBusyVMs2:timeavg 	-nan
attr source  numBusyVMs2
attr title  "Number of busy vms - processing a job, timeavg"
statistic FatTree.Controller.TrafficController.tcpApp[0] 	numBusyVMs1:stats
field count 0
field mean 0
field stddev -nan
field sum 0
field sqrsum 0
field min 0
field max 0
attr source  numBusyVMs1
attr title  "Number of busy vms - processing a job, stats"
scalar FatTree.Controller.TrafficController.tcpApp[0] 	numBusyVMs1:timeavg 	-nan
attr source  numBusyVMs1
attr title  "Number of busy vms - processing a job, timeavg"
scalar FatTree.Controller.TrafficController.tcpApp[0] 	numFreeFTPVMs:timeavg 	16
attr source  numFreeFTPVMs
attr title  "Free VMs for FTP service, timeavg"
statistic FatTree.Controller.TrafficController.tcpApp[0] 	numFreeFTPVMs:stats
field count 2
field mean 16
field stddev 0
field sum 32
field sqrsum 512
field min 16
field max 16
attr source  numFreeFTPVMs
attr title  "Free VMs for FTP service, stats"
scalar FatTree.Controller.TrafficController.tcpApp[0] 	numFreeWebVMs:timeavg 	0
attr source  numFreeWebVMs
attr title  "Free VMs for webservice, timeavg"
statistic FatTree.Controller.TrafficController.tcpApp[0] 	numFreeWebVMs:stats
field count 2
field mean 0
field stddev 0
field sum 0
field sqrsum 0
field min 0
field max 0
attr source  numFreeWebVMs
attr title  "Free VMs for webservice, stats"
statistic FatTree.Controller.TrafficController.tcpApp[0] 	serverState12:stats
field count 0
field mean 0
field stddev -nan
field sum 0
field sqrsum 0
field min 0
field max 0
attr source  globalServerState12
attr title  "Active Servers, stats"
scalar FatTree.Controller.TrafficController.tcpApp[0] 	serverState12:timeavg 	-nan
attr source  globalServerState12
attr title  "Active Servers, timeavg"
statistic FatTree.Controller.TrafficController.tcpApp[0] 	serverState11:stats
field count 0
field mean 0
field stddev -nan
field sum 0
field sqrsum 0
field min 0
field max 0
attr source  globalServerState11
attr title  "Active Servers, stats"
scalar FatTree.Controller.TrafficController.tcpApp[0] 	serverState11:timeavg 	-nan
attr source  globalServerState11
attr title  "Active Servers, timeavg"
statistic FatTree.Controller.TrafficController.tcpApp[0] 	serverState10:stats
field count 0
field mean 0
field stddev -nan
field sum 0
field sqrsum 0
field min 0
field max 0
attr source  globalServerState10
attr title  "Active Servers, stats"
scalar FatTree.Controller.TrafficController.tcpApp[0] 	serverState10:timeavg 	-nan
attr source  globalServerState10
attr title  "Active Servers, timeavg"
statistic FatTree.Controller.TrafficController.tcpApp[0] 	serverState9:stats
field count 0
field mean 0
field stddev -nan
field sum 0
field sqrsum 0
field min 0
field max 0
attr source  globalServerState9
attr title  "Active Servers, stats"
scalar FatTree.Controller.TrafficController.tcpApp[0] 	serverState9:timeavg 	-nan
attr source  globalServerState9
attr title  "Active Servers, timeavg"
statistic FatTree.Controller.TrafficController.tcpApp[0] 	serverState8:stats
field count 0
field mean 0
field stddev -nan
field sum 0
field sqrsum 0
field min 0
field max 0
attr source  globalServerState8
attr title  "Active Servers, stats"
scalar FatTree.Controller.TrafficController.tcpApp[0] 	serverState8:timeavg 	-nan
attr source  globalServerState8
attr title  "Active Servers, timeavg"
statistic FatTree.Controller.TrafficController.tcpApp[0] 	serverState7:stats
field count 0
field mean 0
field stddev -nan
field sum 0
field sqrsum 0
field min 0
field max 0
attr source  globalServerState7
attr title  "Active Servers, stats"
scalar FatTree.Controller.TrafficController.tcpApp[0] 	serverState7:timeavg 	-nan
attr source  globalServerState7
attr title  "Active Servers, timeavg"
statistic FatTree.Controller.TrafficController.tcpApp[0] 	serverState6:stats
field count 0
field mean 0
field stddev -nan
field sum 0
field sqrsum 0
field min 0
field max 0
attr source  globalServerState6
attr title  "Active Servers, stats"
scalar FatTree.Controller.TrafficController.tcpApp[0] 	serverState6:timeavg 	-nan
attr source  globalServerState6
attr title  "Active Servers, timeavg"
statistic FatTree.Controller.TrafficController.tcpApp[0] 	serverState5:stats
field count 0
field mean 0
field stddev -nan
field sum 0
field sqrsum 0
field min 0
field max 0
attr source  globalServerState5
attr title  "Active Servers, stats"
scalar FatTree.Controller.TrafficController.tcpApp[0] 	serverState5:timeavg 	-nan
attr source  globalServerState5
attr title  "Active Servers, timeavg"
statistic FatTree.Controller.TrafficController.tcpApp[0] 	serverState4:stats
field count 0
field mean 0
field stddev -nan
field sum 0
field sqrsum 0
field min 0
field max 0
attr source  globalServerState4
attr title  "Active Servers, stats"
scalar FatTree.Controller.TrafficController.tcpApp[0] 	serverState4:timeavg 	-nan
attr source  globalServerState4
attr title  "Active Servers, timeavg"
statistic FatTree.Controller.TrafficController.tcpApp[0] 	serverState3:stats
field count 0
field mean 0
field stddev -nan
field sum 0
field sqrsum 0
field min 0
field max 0
attr source  globalServerState3
attr title  "Active Servers, stats"
scalar FatTree.Controller.TrafficController.tcpApp[0] 	serverState3:timeavg 	-nan
attr source  globalServerState3
attr title  "Active Servers, timeavg"
statistic FatTree.Controller.TrafficController.tcpApp[0] 	serverState2:stats
field count 0
field mean 0
field stddev -nan
field sum 0
field sqrsum 0
field min 0
field max 0
attr source  globalServerState2
attr title  "Active Servers, stats"
scalar FatTree.Controller.TrafficController.tcpApp[0] 	serverState2:timeavg 	-nan
attr source  globalServerState2
attr title  "Active Servers, timeavg"
statistic FatTree.Controller.TrafficController.tcpApp[0] 	serverState1:stats
field count 1
field mean 16
field stddev -nan
field sum 16
field sqrsum 256
field min 16
field max 16
attr source  globalServerState1
attr title  "Active Servers, stats"
scalar FatTree.Controller.TrafficController.tcpApp[0] 	serverState1:timeavg 	16
attr source  globalServerState1
attr title  "Active Servers, timeavg"
